7
Properties=species:S:1:pos:R:3:energy:R:1 pbc="F F F"
O        0.13369386      -0.85716230       0.03948764     -26.91977234
C        1.29110181      -0.33609682      -0.07384951     -26.91977234
N        0.19213593       1.82298446      -0.45876315     -26.91977234
N       -0.82535422       1.41570711      -0.23355274     -26.91977234
C       -1.13885057      -0.47465542      -0.17852740     -26.91977234
H        2.00299096      -1.18686986      -0.06675024     -26.91977234
H       -1.61399436      -0.49779329       0.81958175     -26.91977234
