7
Properties=species:S:1:pos:R:3:energy:R:1 pbc="F F F"
O        1.57493353      -0.04259079      -0.32830989     -23.69133558
N        1.36846840       1.11997330      -0.22948600     -23.69133558
C       -0.95372498       0.63280040      -0.23066269     -23.69133558
C       -0.98821133      -0.58056545      -0.32770547     -23.69133558
N        1.30205572      -1.19230843      -0.41774273     -23.69133558
H       -1.12432754       1.68347538      -0.14270066     -23.69133558
H       -1.21922803      -1.62035263      -0.40696219     -23.69133558
