7
Properties=species:S:1:pos:R:3:energy:R:1 pbc="F F F"
O        1.66245580      -0.43183094       0.23050314     -23.60567804
N        0.65934098       1.09556353      -0.19350472     -23.60567804
C       -0.59927994       0.82240617      -0.29071298     -23.60567804
C       -1.05310917      -0.31631297      -1.00869489     -23.60567804
N        1.37048602      -1.50001180      -0.05174413     -23.60567804
H       -1.32356966       1.63020301      -0.09169032     -23.60567804
H       -0.68359947      -1.30032229      -0.67541742     -23.60567804
