7
Properties=species:S:1:pos:R:3:energy:R:1 pbc="F F F"
O        1.68796563       0.07596635      -0.27918133     -27.46410835
N        0.91494620       1.02738667      -0.19115579     -27.46410835
C       -0.40061188       0.85302395      -0.24400003     -27.46410835
C       -0.61047572      -0.52326983      -0.52354330     -27.46410835
N        0.30005148      -1.36891603      -0.57077974     -27.46410835
H       -1.10105145       1.66852272      -0.18376142     -27.46410835
H       -0.74271393      -1.72775340      -0.06080945     -27.46410835
