7
Properties=species:S:1:pos:R:3:energy:R:1 pbc="F F F"
O        0.72680247       1.30729008       0.03165165     -28.60660218
C        1.14326560      -0.89453286      -0.08042554     -28.60660218
N       -0.02529038      -1.13491726      -0.04981820     -28.60660218
C       -1.01024020      -0.09597380       0.03102125     -28.60660218
N       -0.51707977       1.08641517       0.06521975     -28.60660218
H        1.73416710       0.07122225      -0.06332912     -28.60660218
H       -2.06274104      -0.32494161       0.05649812     -28.60660218
