12
Properties=species:S:1:pos:R:3:forces:R:3 energy=-0.024999499320983887 pbc="F F F"
C       -1.86507974       0.29978547      -0.48790777      -0.01049888      -0.00156858      -0.00305609
N       -0.53275693      -0.01242118      -0.02342487       0.00865579       0.01930973       0.00472163
C        0.39156213      -0.52141105      -0.79486338       0.02490402      -0.00811243      -0.00255569
N        1.60062158      -0.64607283      -0.25791256      -0.00146061      -0.00414418      -0.00580142
C        1.68297480       0.32293551       1.06424352       0.00993559       0.01976054       0.02645028
O        2.75659532       0.41422044       1.55948665      -0.00838348      -0.00870288      -0.01531601
H       -2.32471699       1.00894556       0.20425638      -0.01454807       0.02655863       0.00281234
H       -1.86327859       0.75430110      -1.48779117       0.01510136      -0.00595313      -0.02304470
H       -2.49188309      -0.59916112      -0.51345109      -0.00962858      -0.02707651       0.00722244
H        0.19193849      -0.79044740      -1.83801260      -0.01211380       0.00444048       0.01791105
H        2.38693190      -0.88623476      -0.84900192       0.00120262      -0.01449788      -0.02239969
H        0.18854636       0.44127666       0.84759514       0.00254179       0.00532975       0.00359282
