12
Properties=species:S:1:pos:R:3:forces:R:3 energy=0.38994717597961426 pbc="F F F"
C       -1.79116571      -0.34401870      -0.64047997      -0.00044623       0.01103568      -0.00032750
N       -1.11745367       0.94220159      -0.42986377       0.00309255       0.00579729      -0.00140116
C        0.17139892       1.01042363      -0.09195227      -0.02025623      -0.00153098      -0.00849158
N        0.88832627      -0.13697612       0.13041753      -0.00204804       0.00811395       0.00064210
C        2.24023978      -0.08906339       0.44395525       0.00440514      -0.02958305       0.00272452
O        2.90286564      -1.07291678       0.66047462       0.01295682       0.01555775       0.00024927
H       -1.94298737      -0.83523926       0.32812344       0.02598426       0.01190336      -0.03148288
H       -2.76800462      -0.15969762      -1.08997028       0.01408857      -0.02643518       0.00493358
H       -1.22238537      -1.02031865      -1.29417177       0.00965330       0.02049433       0.03118024
H       -0.29329164       1.65477197      -1.07126817      -0.00854648       0.00706245      -0.00510259
H        0.48033141      -1.06923819       0.11985605      -0.01432156       0.01378033      -0.00172806
H        2.62117909       0.94465227       0.46406054      -0.03004523      -0.02941434      -0.00522162
