7
Properties=species:S:1:pos:R:3:forces:R:3 energy=5.633108615875244 pbc="F F F"
O        1.58030526      -0.04745260      -0.32936158       0.05428318       0.00089302      -0.00125166
N        1.38847674       1.12027110      -0.25741532      -0.02390240      -0.00051490      -0.00672169
C       -0.95005395       0.63560243      -0.23709858       0.00172866       0.03193883      -0.00615467
C       -0.98854211      -0.57902311      -0.31822065      -0.01987807      -0.03129700       0.00580628
N        1.31698870      -1.20163147      -0.39210659      -0.02793475       0.00033774       0.00776498
H       -1.13426710       1.68531513      -0.16806842       0.00275770       0.00857090       0.00406321
H       -1.24009031      -1.61523647      -0.37905421       0.00986848      -0.00999858      -0.00340196
