7
Properties=species:S:1:pos:R:3:forces:R:3 energy=0.10165286064147949 pbc="F F F"
O        1.70111330       0.10717283      -0.35395419      -0.00883771       0.02551661      -0.02498630
N        0.91660585       1.04131686      -0.23646639       0.00085012      -0.01628936       0.03568092
C       -0.40197017       0.85659945      -0.22801183       0.00802191      -0.01256215      -0.01460333
C       -0.60449690      -0.52174100      -0.48270259       0.01156630       0.01226421       0.00348857
N        0.29105942      -1.37490996      -0.58025589      -0.01651349      -0.01374662       0.00821229
H       -1.10018779       1.67133721      -0.14089670       0.00024053       0.00708676      -0.01185652
H       -0.76290167      -1.76870816      -0.12439915      -0.00610915       0.00036869      -0.00398072
