11
Properties=species:S:1:pos:R:3:forces:R:3 energy=2.226954460144043 pbc="F F F"
C       -1.58958195      -0.10902991      -0.39012158       0.00572281       0.00158259       0.00359369
N       -0.43706133       0.03184719       0.48027788      -0.00785007      -0.00494127       0.02715013
C        0.81625005       0.09735802      -0.01609463       0.00780429      -0.00682856       0.01810420
O        1.07271110       0.23326379      -1.27522042      -0.00673074      -0.00676981       0.01236823
N        1.97426703       0.05993179       0.61188857      -0.00226328       0.00865569      -0.01433990
H       -1.47463313       0.56375741      -1.24165339       0.02068760       0.00513503       0.00392338
H       -1.70557945      -1.13233153      -0.76685173       0.00610086      -0.01837700      -0.02383786
H       -2.48819290       0.17236413       0.16489547      -0.01997918       0.01162551       0.00534472
H       -0.52334902      -0.29756391       1.42805383      -0.00596249       0.00017447       0.01732086
H        2.08038821       0.14120441       1.61442408      -0.01936856       0.00212229      -0.02343611
H        2.21995673       0.25106710      -0.68788504       0.00999665      -0.00003859      -0.02958576
