7
Properties=species:S:1:pos:R:3:forces:R:3 energy=-0.779136061668396 pbc="F F F"
O        0.52228755      -1.19084273       0.23606844      -0.02357178       0.00665154       0.00861150
C        1.14467825      -0.21960181      -0.18315017       0.01161114       0.00549276      -0.00585812
N        0.60295522       1.02254489      -0.45506551       0.02085337      -0.00218395       0.00491033
N       -0.66343310       0.88088360      -0.16164710       0.05753323      -0.00914083      -0.02430031
C       -1.44544998       0.09456785       0.22607728      -0.04840937       0.00321687       0.01411198
H        2.21953777      -0.25187696      -0.38988820      -0.01724160       0.01628903      -0.00376091
H       -2.36410779      -0.35096899       0.54726153      -0.00851326       0.00010869       0.00648788
