7
Properties=species:S:1:pos:R:3:forces:R:3 energy=-2.7994179725646973 pbc="F F F"
O        1.49510953       1.17664573      -0.35420552      -0.00095180      -0.02582115       0.00601839
C        1.17110782       0.04960246      -0.08550746      -0.01371425       0.01315002      -0.00291545
N        0.22186805      -0.76486965       0.18696388      -0.02249026       0.01429413      -0.00252989
C       -1.43725220       0.04462583       0.09104107       0.00383474      -0.00591763       0.00381446
N       -1.21566554       1.19838374       0.04636138       0.00280481       0.00210173       0.00099788
H        1.87731786      -0.87142608       0.01727122       0.01129540       0.00931564      -0.00370959
H       -2.06991080      -0.82367226       0.12163496       0.00969280      -0.00022860      -0.00722880
