90
Properties=species:S:1:pos:R:3:energy:R:1 pbc="F F F"
C       -1.35824192      -2.88318253       2.73910618      49.17974962
H       -1.79189777      -2.49355412       3.66516089      49.17974962
H       -2.07504630      -3.39259219       2.08893085      49.17974962
C        0.01211552      -3.23736811       2.70863533      49.17974962
H        0.63222796      -3.14304042       3.60316777      49.17974962
H        0.33402532      -4.01975346       2.01643133      49.17974962
H        0.01377990      -2.32877779       0.49968624      49.17974962
Rh      -0.30074683      -1.30030668       1.66378820      49.17974962
O       -2.60021234      -1.85751319      -0.81675643      49.17974962
C       -3.78837276      -0.58282387       1.21396959      49.17974962
C       -2.18531156       0.80438972      -0.76227236      49.17974962
O        1.03175271       0.24021766      -0.95268875      49.17974962
C        2.14356184       1.33574367       1.38777304      49.17974962
C        2.93973589      -1.36038792       0.43981692      49.17974962
P        1.44518399      -0.23859999       0.58755201      49.17974962
P       -2.16556144      -0.71036649       0.32084039      49.17974962
C       -0.11400221      -0.29137552       3.29127002      49.17974962
O        0.22583440       0.17728934       4.29047251      49.17974962
C       -1.67043638      -2.72133493      -1.48751271      49.17974962
H       -0.78947634      -2.83666945      -0.83546692      49.17974962
C       -1.20626032      -2.10265183      -2.79855967      49.17974962
H       -0.70595485      -1.14322853      -2.61008978      49.17974962
H       -2.05231094      -1.93996584      -3.48564696      49.17974962
H       -0.47226644      -2.76171637      -3.28991222      49.17974962
C       -2.32744861      -4.08305740      -1.64288151      49.17974962
H       -2.65019679      -4.46112680      -0.66060770      49.17974962
H       -3.20666003      -4.03474855      -2.30541301      49.17974962
H       -1.60933840      -4.80189610      -2.06984019      49.17974962
H       -3.59200525       0.09648177       2.05728865      49.17974962
H       -3.94750452      -1.58590376       1.64021373      49.17974962
C       -4.97173214      -0.11836712       0.41002902      49.17974962
C       -5.54162979      -0.93170178      -0.58425260      49.17974962
H       -5.11019802      -1.91497099      -0.77611995      49.17974962
C       -5.51871729       1.15533888       0.62703371      49.17974962
H       -5.08056688       1.80214429       1.39092767      49.17974962
C       -6.62881899      -0.48099133      -1.33502400      49.17974962
H       -7.05987740      -1.12678719      -2.10479116      49.17974962
C       -6.60957336       1.60585809      -0.12070923      49.17974962
H       -7.02466583       2.59890461       0.07094903      49.17974962
C       -7.16944885       0.78854424      -1.10566473      49.17974962
H       -8.02512455       1.13686597      -1.68984365      49.17974962
H       -3.07329988       0.73400986      -1.40712988      49.17974962
H       -1.29139054       0.68338060      -1.39229608      49.17974962
C       -2.13156509       2.13178706      -0.05077044      49.17974962
C       -1.20116806       2.36979938       0.97206128      49.17974962
H       -0.56736517       1.55094755       1.29997003      49.17974962
C       -2.97906923       3.18482876      -0.42833945      49.17974962
H       -3.72795296       3.01589394      -1.20599115      49.17974962
C       -1.09491110       3.62051034       1.58082938      49.17974962
H       -0.35538515       3.77300477       2.37191725      49.17974962
C       -2.87615633       4.44061613       0.17687562      49.17974962
H       -3.54143095       5.24895191      -0.13784499      49.17974962
C       -1.92816210       4.66751289       1.17923570      49.17974962
H       -1.84265566       5.65125322       1.64746392      49.17974962
C        1.77658975       1.07973421      -1.86773407      49.17974962
H        2.83021021       1.09724617      -1.55205059      49.17974962
C        1.21765399       2.50168228      -1.86521780      49.17974962
H        1.21593726       2.96000743      -0.86758685      49.17974962
H        0.18079147       2.51672912      -2.23432183      49.17974962
H        1.82363784       3.13840294      -2.53094101      49.17974962
C        1.68640924       0.46460626      -3.25787902      49.17974962
H        2.04647303      -0.57135046      -3.26009321      49.17974962
H        0.64539683       0.48034275      -3.61678076      49.17974962
H        2.29665804       1.04886985      -3.96561718      49.17974962
H        1.86551678       1.24227083       2.44651747      49.17974962
H        1.54376185       2.15873575       0.97858256      49.17974962
C        3.61476517       1.60882223       1.27046037      49.17974962
C        4.14954662       2.45530319       0.28671044      49.17974962
H        3.47990942       2.99771237      -0.38248208      49.17974962
C        4.50655079       0.97263652       2.15092611      49.17974962
H        4.10510159       0.33336729       2.94212055      49.17974962
C        5.53099966       2.62534046       0.16076112      49.17974962
H        5.92549992       3.29213214      -0.61025649      49.17974962
C        5.88648748       1.13209152       2.02300739      49.17974962
H        6.55701351       0.61061275       2.71023512      49.17974962
C        6.40605688       1.95298469       1.01820779      49.17974962
H        7.48627090       2.07720709       0.91284245      49.17974962
H        2.66251636      -2.20235562       1.08628070      49.17974962
H        3.79965401      -0.85504705       0.89298588      49.17974962
C        3.30328918      -1.84310317      -0.92988777      49.17974962
C        4.31320667      -1.19875264      -1.65910172      49.17974962
H        4.80696344      -0.32393822      -1.22623146      49.17974962
C        2.67545414      -2.96577120      -1.48909128      49.17974962
H        1.89172804      -3.47600150      -0.92299372      49.17974962
C        4.69774961      -1.67161787      -2.91425610      49.17974962
H        5.49200773      -1.16194224      -3.46535754      49.17974962
C        3.06470418      -3.44584751      -2.74140835      49.17974962
H        2.58683276      -4.33911896      -3.15199184      49.17974962
C        4.07943821      -2.80226779      -3.45685887      49.17974962
H        4.39638662      -3.18841958      -4.42849350      49.17974962
