78
Properties=species:S:1:pos:R:3:energy:R:1 pbc="F F F"
C       -1.50024879      -3.15768814      -0.49222183      81.20061524
H       -1.34694266      -3.88125944       0.31154880      81.20061524
H       -2.49784398      -2.71748400      -0.52666259      81.20061524
C       -0.67581677      -3.18641853      -1.61658585      81.20061524
H        0.13662341      -3.91058040      -1.70894563      81.20061524
H       -1.04574323      -2.77426529      -2.55896473      81.20061524
H       -0.03073762      -1.03604209      -1.68715084      81.20061524
Rh      -0.01893366      -1.48678505      -0.16880420      81.20061524
O       -2.34380770       0.71924502      -1.41254163      81.20061524
O       -3.26156187      -0.67408979       0.41706803      81.20061524
O       -1.82829654       1.40517128       0.91088462      81.20061524
O        2.38063049       0.32919207       1.42368495      81.20061524
O        3.04698968      -0.28139254      -0.88641840      81.20061524
O        1.33261585       1.57385468      -0.40847594      81.20061524
P        1.67668617       0.01854528      -0.02515256      81.20061524
P       -1.84410405       0.02282431      -0.00090798      81.20061524
C        0.73074180      -2.68828821       1.13754547      81.20061524
O        1.26084602      -3.57047343       1.66758156      81.20061524
C       -1.45374346       1.55219853      -2.19011760      81.20061524
H       -0.57701647       1.80081213      -1.57405376      81.20061524
C       -2.20228243       2.83003235      -2.53536272      81.20061524
H       -2.52459121       3.34888411      -1.62090862      81.20061524
H       -3.09318447       2.60015178      -3.14260006      81.20061524
H       -1.55501783       3.50562644      -3.11841798      81.20061524
C       -0.99617416       0.79699695      -3.43192625      81.20061524
H       -0.44725430      -0.11118076      -3.14873624      81.20061524
H       -1.85813820       0.50120991      -4.05058002      81.20061524
H       -0.32541618       1.42637622      -4.03852940      81.20061524
C       -4.52958441       0.02387426       0.40054676      81.20061524
H       -4.32696581       1.10684001       0.37289658      81.20061524
C       -5.24873829      -0.32586402       1.69372523      81.20061524
H       -4.65932655      -0.00479121       2.56475592      81.20061524
H       -5.40055180      -1.41485524       1.76394355      81.20061524
H       -6.23266792       0.16780512       1.73399580      81.20061524
C       -5.29602051      -0.38707376      -0.84813595      81.20061524
H       -4.72167206      -0.11908472      -1.74512339      81.20061524
H       -5.46802092      -1.47581851      -0.84815079      81.20061524
H       -6.27427149       0.11875132      -0.88563472      81.20061524
C       -1.06201148       1.50616682       2.12633204      81.20061524
H       -0.03667521       1.15613627       1.92409492      81.20061524
C       -1.66775334       0.64660239       3.22903824      81.20061524
H       -1.67113268      -0.41563803       2.94270897      81.20061524
H       -2.70425010       0.95773435       3.43610287      81.20061524
H       -1.08257008       0.74931717       4.15682125      81.20061524
C       -1.02539635       2.98371148       2.47884250      81.20061524
H       -0.62515241       3.56241536       1.63479507      81.20061524
H       -2.03992271       3.35238171       2.69985676      81.20061524
H       -0.38743204       3.15763021       3.35948062      81.20061524
C        3.05177331      -0.69735742       2.18362617      81.20061524
H        3.06945372      -1.62120259       1.58358192      81.20061524
C        2.26418853      -0.93508834       3.46345758      81.20061524
H        1.21629977      -1.16728759       3.22826791      81.20061524
H        2.28525805      -0.03704222       4.10146570      81.20061524
H        2.68808842      -1.78080642       4.02654696      81.20061524
C        4.48655367      -0.24957159       2.41698694      81.20061524
H        4.98882008      -0.06903122       1.45519257      81.20061524
H        4.51245975       0.68004292       3.00840116      81.20061524
H        5.04434729      -1.02515447       2.96585011      81.20061524
C        2.98681092      -1.03460765      -2.11468220      81.20061524
H        2.03698277      -1.59711635      -2.11010289      81.20061524
C        4.14158583      -2.01695275      -2.09471297      81.20061524
H        4.04615211      -2.68394780      -1.22401845      81.20061524
H        5.10604858      -1.48905206      -2.02608204      81.20061524
H        4.13860130      -2.63364315      -3.00692677      81.20061524
C        2.98771334      -0.06739778      -3.28877330      81.20061524
H        2.11560416       0.60129678      -3.23072171      81.20061524
H        3.90039587       0.55037963      -3.28952217      81.20061524
H        2.93253899      -0.61441636      -4.24300957      81.20061524
C        2.35567117       2.61081266      -0.45971411      81.20061524
H        3.33169484       2.11103654      -0.55895621      81.20061524
C        2.34441829       3.44379210       0.81541258      81.20061524
H        2.49552321       2.80866170       1.69748676      81.20061524
H        1.39251161       3.98528361       0.92372674      81.20061524
H        3.15555739       4.18977833       0.77508688      81.20061524
C        2.09110475       3.44960499      -1.70116580      81.20061524
H        2.11883402       2.83216834      -2.61011457      81.20061524
H        1.10539055       3.93793535      -1.63744295      81.20061524
H        2.85669947       4.23688221      -1.79503238      81.20061524
