58
Properties=species:S:1:pos:R:3:energy:R:1 pbc="F F F"
C        4.59541798      -0.29608950      -1.00895989      44.29208892
H        4.51614428      -0.61183274      -2.05456567      44.29208892
H        5.07351685       0.67864031      -0.87574303      44.29208892
C        4.68362904      -1.28259993       0.00675431      44.29208892
H        4.69217777      -2.34407210      -0.25560987      44.29208892
H        5.21127176      -1.04283679       0.93289584      44.29208892
H        3.30802083       0.37401110       1.22953045      44.29208892
Rh       2.66016269      -0.39831600      -0.01226227      44.29208892
C        0.23155327       2.25839996       0.14566839      44.29208892
C        2.95238972       3.08752203       0.39891312      44.29208892
C        1.87539852       2.49308395      -2.15704799      44.29208892
C       -0.74269336      -0.90154356       1.09953940      44.29208892
C        1.05600572      -2.86859775       1.99346769      44.29208892
C        1.11866009      -0.26375782       3.20162153      44.29208892
P        1.04247963      -1.07379282       1.55018008      44.29208892
P        1.91030717       1.81231856      -0.43641594      44.29208892
C        2.07186437      -1.70412040      -1.29221308      44.29208892
O        1.83338416      -2.63850236      -1.92878568      44.29208892
C       -0.01546761       2.83899879       1.40123224      44.29208892
H        0.81485325       3.10446477       2.05882597      44.29208892
C       -0.87236983       1.93589211      -0.65252501      44.29208892
H       -0.72268671       1.44507527      -1.61611259      44.29208892
C       -1.31439424       3.09180474       1.83402836      44.29208892
H       -1.50962627       3.53608680       2.81212521      44.29208892
C       -2.17593622       2.20484972      -0.24504657      44.29208892
H       -3.00260758       1.92822301      -0.89633727      44.29208892
C       -2.40749311       2.77831340       1.01253748      44.29208892
O       -3.64016771       3.03934193       1.51068366      44.29208892
C       -4.76467276       2.79320288       0.69053864      44.29208892
H       -4.87309837       1.72191644       0.45247877      44.29208892
H       -5.64385033       3.12357879       1.25925684      44.29208892
H       -4.71050930       3.36926627      -0.25127974      44.29208892
H        3.00864887       2.86553097       1.47322583      44.29208892
H        3.97341275       3.01464486      -0.00388879      44.29208892
H        2.56217337       4.10590696       0.24571908      44.29208892
H        1.52495384       3.53756952      -2.16081548      44.29208892
H        2.88959455       2.43756890      -2.57946491      44.29208892
H        1.21245170       1.88453650      -2.78733706      44.29208892
C       -1.72178471      -0.43258300       1.99175417      44.29208892
H       -1.44598675      -0.08145125       2.98592162      44.29208892
C       -1.16638017      -1.31206870      -0.17073469      44.29208892
H       -0.43562528      -1.66336691      -0.89989293      44.29208892
C       -3.06374073      -0.38100326       1.63110125      44.29208892
H       -3.81572962       0.00778869       2.31997180      44.29208892
C       -2.51093292      -1.27355731      -0.54776996      44.29208892
H       -2.79134893      -1.59722793      -1.54987848      44.29208892
C       -3.46889758      -0.79731458       0.35615781      44.29208892
O       -4.79460287      -0.66548097       0.07371267      44.29208892
C       -5.26270151      -1.05094063      -1.19951332      44.29208892
H       -5.09266996      -2.12561154      -1.38924980      44.29208892
H       -6.34287214      -0.85214561      -1.21080959      44.29208892
H       -4.78180647      -0.46882275      -2.00663733      44.29208892
H        0.87307715      -3.44647264       1.07548797      44.29208892
H        2.04851532      -3.14064527       2.38132262      44.29208892
H        0.27532724      -3.10894060       2.73264766      44.29208892
H        0.43521115      -0.72818869       3.92873859      44.29208892
H        2.15123320      -0.33862117       3.56821609      44.29208892
H        0.86511475       0.79966307       3.08895445      44.29208892
