76
Properties=species:S:1:pos:R:3:energy:R:1 pbc="F F F"
C        0.15244749      -2.90254641       3.04748774      38.47260445
H        0.23033763      -3.99108672       2.97022152      38.47260445
H        1.05061734      -2.42504120       3.45240855      38.47260445
C       -1.12412465      -2.31950569       3.26324415      38.47260445
H       -2.01920104      -2.93896794       3.35059619      38.47260445
H       -1.17949939      -1.38277054       3.82585049      38.47260445
H       -0.26611501      -0.66756809       1.93650079      38.47260445
Rh      -0.46623668      -2.02084804       1.16989088      38.47260445
C        2.31265044       0.02594681       1.69145525      38.47260445
C        2.94911671      -2.50362611       0.40445483      38.47260445
C        1.88976312      -0.21138903      -1.16637647      38.47260445
C       -2.08413649      -1.93079746      -2.05043435      38.47260445
C       -3.74699450      -1.06667292       0.16850060      38.47260445
C       -1.79148686       0.68302363      -1.10137200      38.47260445
P       -1.97103465      -1.04958677      -0.42511538      38.47260445
P        1.63666499      -1.16945302       0.45675066      38.47260445
C       -0.99324542      -3.77680063       0.56158072      38.47260445
O       -1.47657061      -4.80883837       0.37923339      38.47260445
H        1.63204253       0.88735056       1.74215972      38.47260445
H        2.32070589      -0.46136633       2.67723131      38.47260445
H        3.31612301       0.39120540       1.43707025      38.47260445
H        2.93544936      -2.92016721       1.42387033      38.47260445
H        2.53332710      -3.27893209      -0.25552034      38.47260445
C        4.32377195      -2.09724641      -0.02479352      38.47260445
C        4.74301243      -2.29622316      -1.34965932      38.47260445
H        4.07457876      -2.79997039      -2.05284786      38.47260445
C        5.21065664      -1.46631432       0.86325043      38.47260445
H        4.91538715      -1.31834793       1.90400958      38.47260445
C        5.99683237      -1.86693442      -1.78831065      38.47260445
H        6.32695150      -2.01963878      -2.81721020      38.47260445
C        6.46455145      -1.02540600       0.44240102      38.47260445
H        7.15600109      -0.53097552       1.12690949      38.47260445
C        6.84059954      -1.22811604      -0.88372391      38.47260445
F        8.04548264      -0.80710799      -1.29516590      38.47260445
H        2.43519497      -0.88200366      -1.84569490      38.47260445
H        0.88577759      -0.08057606      -1.58809924      38.47260445
C        2.58608842       1.12216270      -1.06073844      38.47260445
C        1.86415398       2.28521466      -0.74288642      38.47260445
H        0.78416359       2.23633099      -0.60187060      38.47260445
C        3.97548962       1.23428714      -1.22646248      38.47260445
H        4.56167078       0.35115418      -1.47688794      38.47260445
C        2.50141430       3.51707196      -0.58401138      38.47260445
H        1.94035888       4.41971731      -0.33411142      38.47260445
C        4.62953758       2.45795059      -1.07103908      38.47260445
H        5.71033859       2.54595613      -1.19823456      38.47260445
C        3.88250685       3.58685732      -0.74601781      38.47260445
F        4.50528908       4.76547289      -0.58915234      38.47260445
H       -2.33874559      -2.98815370      -1.88674259      38.47260445
H       -2.83744168      -1.47543859      -2.71206164      38.47260445
H       -1.10296202      -1.89280665      -2.54800797      38.47260445
H       -3.97469211      -2.13332009       0.32063201      38.47260445
H       -3.70941687      -0.60668439       1.16628587      38.47260445
C       -4.75484085      -0.39044043      -0.71201122      38.47260445
C       -5.01003075       0.98375559      -0.56842697      38.47260445
H       -4.49038601       1.54634905       0.21045250      38.47260445
C       -5.42983866      -1.08768868      -1.72690690      38.47260445
H       -5.25343609      -2.15892100      -1.85422897      38.47260445
C       -5.90730095       1.64650202      -1.40553486      38.47260445
H       -6.11042833       2.71337008      -1.29502356      38.47260445
C       -6.33471966      -0.44116175      -2.57181692      38.47260445
H       -6.87160683      -0.97851783      -3.35588312      38.47260445
C       -6.56148815       0.92174888      -2.39899254      38.47260445
F       -7.43284988       1.54939890      -3.20280266      38.47260445
H       -0.89854628       0.65606356      -1.75044668      38.47260445
H       -2.63879275       0.86477900      -1.78177953      38.47260445
C       -1.66176975       1.81509018      -0.10665670      38.47260445
C       -1.78794122       3.15183473      -0.51970738      38.47260445
H       -2.05693293       3.37807870      -1.55508673      38.47260445
C       -1.35299969       1.57650197       1.23545504      38.47260445
H       -1.25632238       0.55154163       1.58312869      38.47260445
C       -1.56559467       4.20324945       0.37317070      38.47260445
H       -1.66556251       5.24568272       0.06711178      38.47260445
C       -1.10222518       2.60721016       2.13683581      38.47260445
H       -0.82279831       2.39057899       3.16991663      38.47260445
C       -1.20524096       3.91751719       1.69021726      38.47260445
F       -0.96661538       4.92484522       2.54143310      38.47260445
