96
Properties=species:S:1:pos:R:3:energy:R:1 pbc="F F F"
C        0.75121731      -2.61820793      -2.35134697      97.96712279
H        0.84815460      -3.64730263      -1.99786425      97.96712279
H       -0.16695517      -2.42743802      -2.91547155      97.96712279
C        1.89883220      -1.84829545      -2.57613707      97.96712279
H        2.89921093      -2.24088812      -2.38203216      97.96712279
H        1.86276484      -1.03466260      -3.30743051      97.96712279
H        1.54133332      -0.02602611      -1.31617546      97.96712279
Rh       0.90649658      -1.29816496      -0.55710304      97.96712279
C       -1.03455842       0.46961245      -2.99585915      97.96712279
C       -2.57092118      -1.50337410      -1.43548810      97.96712279
C       -1.93370628       1.05039799      -0.21636006      97.96712279
C        0.84610736      -0.90761894       3.00501561      97.96712279
C        3.28019357      -0.03900689       1.64894843      97.96712279
C        0.90672952       1.64047563       1.67263865      97.96712279
P        1.44364142      -0.12125985       1.39799118      97.96712279
P       -1.18324518      -0.28341451      -1.27230918      97.96712279
C        1.20639718      -2.88716412       0.44561398      97.96712279
O        1.63230181      -3.80205536       1.02422309      97.96712279
H       -0.40177381      -0.27245343      -3.51342654      97.96712279
C       -2.32028151       0.62411284      -3.81259680      97.96712279
H       -2.07559204       0.97425485      -4.83025837      97.96712279
H       -2.86799741      -0.32388535      -3.91397643      97.96712279
H       -3.00331426       1.36311710      -3.36893797      97.96712279
C       -0.23794252       1.77869809      -2.94545245      97.96712279
H        0.71585351       1.64204407      -2.41609836      97.96712279
H       -0.00914586       2.12855959      -3.96587110      97.96712279
H       -0.80203712       2.58159375      -2.44288564      97.96712279
H       -3.49706340      -1.01873577      -1.78299224      97.96712279
H       -2.26547122      -2.21374798      -2.22187757      97.96712279
C       -2.80242610      -2.25478840      -0.12495726      97.96712279
H       -1.83573079      -2.66433048       0.21382043      97.96712279
H       -3.12452674      -1.54444456       0.65786535      97.96712279
C       -3.82924128      -3.37961721      -0.23254555      97.96712279
H       -3.49761915      -4.09908819      -1.00422585      97.96712279
H       -4.79255915      -2.97258878      -0.59291983      97.96712279
C       -4.04960299      -4.11860609       1.08855176      97.96712279
H       -3.08300018      -4.52125311       1.44200659      97.96712279
H       -4.37047625      -3.39297342       1.85856950      97.96712279
C       -5.07357836      -5.24715137       0.98469633      97.96712279
H       -5.21756601      -5.75882435       1.94975173      97.96712279
H       -4.75525427      -6.00458860       0.24867515      97.96712279
H       -6.05539656      -4.86394691       0.65843260      97.96712279
H       -1.93719769       0.62056392       0.79832590      97.96712279
H       -1.19250071       1.86093402      -0.18755026      97.96712279
C       -3.31463838       1.62194979      -0.53267580      97.96712279
H       -3.29427147       2.14489102      -1.50252223      97.96712279
H       -4.04953432       0.80595392      -0.64097673      97.96712279
C       -3.79939961       2.59406662       0.54592615      97.96712279
H       -3.06174493       3.41101766       0.65848476      97.96712279
H       -3.81956935       2.07403898       1.52206242      97.96712279
C       -5.17803383       3.19033241       0.25771937      97.96712279
H       -5.15163803       3.70248580      -0.72150505      97.96712279
H       -5.90922356       2.36890578       0.14613374      97.96712279
C       -5.65734816       4.16344166       1.33391106      97.96712279
H       -6.65090227       4.57569313       1.09571350      97.96712279
H       -4.96088362       5.01198006       1.44331634      97.96712279
H       -5.72841311       3.66787720       2.31688857      97.96712279
H        1.27919912      -1.92016160       2.95624995      97.96712279
C        1.35395825      -0.23324440       4.28616190      97.96712279
H        1.08341622      -0.84715313       5.16201401      97.96712279
H        2.44684911      -0.10933135       4.29857159      97.96712279
H        0.89596003       0.75734586       4.43891764      97.96712279
C       -0.67985380      -1.05088460       3.02857375      97.96712279
H       -1.04986203      -1.57213771       2.13598752      97.96712279
H       -0.99374723      -1.62333214       3.91770625      97.96712279
H       -1.17797685      -0.06827458       3.08696556      97.96712279
H        3.53021336       0.72178864       2.40744209      97.96712279
H        3.56640244      -1.02266896       2.05997515      97.96712279
C        4.02184534       0.20672336       0.33709887      97.96712279
H        3.61512518      -0.49045423      -0.41235220      97.96712279
H        3.78204942       1.21354735      -0.04667747      97.96712279
C        5.53274202       0.03403448       0.42282006      97.96712279
H        5.75898027      -0.98508179       0.78903157      97.96712279
H        5.96199131       0.72876048       1.16913545      97.96712279
C        6.20663691       0.24955818      -0.93296933      97.96712279
H        5.73633528      -0.42280242      -1.67379224      97.96712279
H        5.98811674       1.27527297      -1.28323543      97.96712279
C        7.71448374       0.01718003      -0.90673178      97.96712279
H        8.17099953       0.18984608      -1.89439571      97.96712279
H        7.94844103      -1.01765287      -0.60453916      97.96712279
H        8.20770168       0.69042391      -0.18528223      97.96712279
H       -0.18385261       1.61653197       1.81680965      97.96712279
H        1.33700073       1.96923995       2.63268304      97.96712279
C        1.26521111       2.63492727       0.57116264      97.96712279
H        2.35750055       2.78531647       0.54889816      97.96712279
H        1.00459099       2.20388770      -0.40664065      97.96712279
C        0.57399243       3.99174047       0.73137569      97.96712279
H        0.83474654       4.43285275       1.71149266      97.96712279
H       -0.52229089       3.84353137       0.75555074      97.96712279
C        0.92292273       4.97652531      -0.38647953      97.96712279
H        2.01573372       5.14047003      -0.39501411      97.96712279
H        0.68333972       4.51040602      -1.35912812      97.96712279
C        0.20161618       6.31847572      -0.26980802      97.96712279
H        0.47519118       6.99840307      -1.09257710      97.96712279
H        0.44822672       6.82627296       0.67800248      97.96712279
H       -0.89356834       6.18709660      -0.29685426      97.96712279
