60
Properties=species:S:1:pos:R:3:energy:R:1 pbc="F F F"
C       -0.51833165       3.60110617      -0.34032276      45.84302259
H        0.28304231       4.07798672      -0.90874296      45.84302259
H       -1.46020567       3.45410252      -0.87127423      45.84302259
C       -0.48215955       3.62162662       1.04947901      45.84302259
H        0.33622026       4.09653759       1.59524107      45.84302259
H       -1.41430986       3.50838542       1.60967851      45.84302259
H       -0.62835777       1.40286291       1.57847273      45.84302259
Rh       0.25218001       1.54262161       0.24529865      45.84302259
C       -2.55889821      -0.83449525      -0.17633145      45.84302259
O       -2.75634789       1.62129557      -1.30273938      45.84302259
O       -1.27152741      -0.19803424      -2.37186551      45.84302259
C        2.69075108      -1.02213669       0.06295746      45.84302259
O        2.03684878      -0.16323209       2.50482798      45.84302259
O        0.42795029      -1.70261085       1.23728204      45.84302259
P        1.29981256      -0.31946740       1.03446138      45.84302259
P       -1.56024230       0.53506297      -0.90314651      45.84302259
C        1.91242230       2.08871174      -0.55693632      45.84302259
O        2.95112300       2.51124144      -0.83456993      45.84302259
C       -2.50417256      -2.12172866      -0.73099166      45.84302259
H       -1.90633154      -2.28392386      -1.62704742      45.84302259
C       -3.34558487      -0.60286897       0.97954273      45.84302259
C       -3.45400739       0.75174278       1.63270152      45.84302259
H       -3.96160221       1.47945809       0.98194206      45.84302259
H       -2.45563936       1.16865993       1.83535492      45.84302259
H       -4.00299597       0.68640780       2.58273363      45.84302259
C       -3.20952606      -3.18346763      -0.16133557      45.84302259
H       -3.15701365      -4.17828369      -0.61067480      45.84302259
C       -4.04643726      -1.68394530       1.53358972      45.84302259
H       -4.65183830      -1.51316595       2.42816734      45.84302259
C       -3.98417807      -2.96293068       0.97818321      45.84302259
H       -4.54181576      -3.78373456       1.43687558      45.84302259
C       -3.92514896       1.21218908      -2.00261688      45.84302259
H       -3.66792345       0.59869903      -2.88090158      45.84302259
H       -4.59592676       0.62755382      -1.35045290      45.84302259
H       -4.44395590       2.12377381      -2.33239865      45.84302259
C       -0.32303414       0.38045377      -3.25835657      45.84302259
H       -0.70958418       1.31829476      -3.69211674      45.84302259
H        0.62546706       0.59853792      -2.73895645      45.84302259
H       -0.14779098      -0.34616470      -4.06410027      45.84302259
C        3.97882080      -0.60419691       0.43005159      45.84302259
H        4.09743738       0.03876546       1.30240476      45.84302259
C        2.52240014      -1.87521613      -1.05516410      45.84302259
C        1.18696320      -2.41637063      -1.49550557      45.84302259
H        0.41608277      -1.63876164      -1.53335238      45.84302259
H        0.82327735      -3.17982030      -0.79156464      45.84302259
H        1.26479650      -2.87078762      -2.49466443      45.84302259
C        5.10335779      -1.00135505      -0.29375568      45.84302259
H        6.09633207      -0.66191721       0.01008079      45.84302259
C        3.66902113      -2.25672078      -1.76976717      45.84302259
H        3.55055523      -2.91269207      -2.63715053      45.84302259
C        4.94580984      -1.82883096      -1.40485120      45.84302259
H        5.81433344      -2.14336443      -1.98986733      45.84302259
C        1.70208097       0.89278460       3.39503145      45.84302259
H        1.30954301       1.75956774       2.83761716      45.84302259
H        0.93537736       0.55737793       4.11389542      45.84302259
H        2.61381578       1.17765081       3.93929887      45.84302259
C       -0.50140673      -1.81752527       2.30339885      45.84302259
H        0.02071759      -2.07226181       3.24106979      45.84302259
H       -1.06770444      -0.88413173       2.44496751      45.84302259
H       -1.20574594      -2.61856890       2.04223871      45.84302259
