66
Properties=species:S:1:pos:R:3:energy:R:1 pbc="F F F"
C        1.46794105      -2.84881973       1.97079134      30.71226426
H        1.71182632      -3.68408012       1.31061661      30.71226426
H        2.34196639      -2.30989456       2.34588766      30.71226426
C        0.26804039      -2.87347174       2.70083880      30.71226426
H       -0.44718179      -3.69094133       2.59437180      30.71226426
H        0.22087891      -2.36001468       3.66583443      30.71226426
H       -0.28556189      -0.76785433       2.24157691      30.71226426
Rh       0.09791057      -1.49777305       0.87965041      30.71226426
O        2.12527037       1.11749446       1.91816700      30.71226426
C        3.46625638      -0.43945873       0.12761460      30.71226426
C        1.60766971       1.55847657      -0.58946562      30.71226426
O       -1.05766094       0.33580256      -1.61838686      30.71226426
C       -3.08042693      -1.11745310      -0.59587944      30.71226426
C       -2.15531611       1.25491130       0.74533647      30.71226426
P       -1.55037475      -0.23788208      -0.13028651      30.71226426
P        1.79115474       0.15602943       0.57958996      30.71226426
C       -0.25240991      -2.92803860      -0.37838304      30.71226426
O       -0.64598823      -3.85205841      -0.94615752      30.71226426
C        2.23409939       0.52993089       3.20087147      30.71226426
H        1.34632874      -0.08156312       3.43512344      30.71226426
H        3.13726234      -0.10116644       3.28133106      30.71226426
H        2.31128287       1.34981537       3.93011260      30.71226426
C        4.59457541       0.37771198       0.30377465      30.71226426
H        4.47548532       1.37390471       0.73671073      30.71226426
C        3.61638761      -1.71407676      -0.43064576      30.71226426
H        2.73228121      -2.34290314      -0.55768991      30.71226426
C        5.85718727      -0.07300670      -0.07514473      30.71226426
H        6.75014782       0.54310018       0.04772673      30.71226426
C        4.87426949      -2.17517877      -0.82388359      30.71226426
H        5.01168585      -3.16452026      -1.26428556      30.71226426
C        5.97639751      -1.34547591      -0.63737255      30.71226426
F        7.18834782      -1.77902937      -1.00733399      30.71226426
C        1.25230980       2.84353900      -0.15854891      30.71226426
H        1.15037942       3.04736996       0.90659875      30.71226426
C        1.75921702       1.31675947      -1.96292031      30.71226426
H        2.02564335       0.31694961      -2.31273699      30.71226426
C        1.04454017       3.87257266      -1.08256066      30.71226426
H        0.77099544       4.88069534      -0.76424736      30.71226426
C        1.56509721       2.33453226      -2.89294648      30.71226426
H        1.68592846       2.16426945      -3.96447444      30.71226426
C        1.20308435       3.60224390      -2.43731427      30.71226426
F        1.00376117       4.58310890      -3.33132100      30.71226426
C       -1.77237344       1.31535280      -2.36169219      30.71226426
H       -2.81684136       1.01062000      -2.55155802      30.71226426
H       -1.77207780       2.29162407      -1.85033357      30.71226426
H       -1.25881660       1.43094552      -3.32715750      30.71226426
C       -4.05294847      -1.37080026       0.38102639      30.71226426
H       -3.94101596      -0.93674737       1.37723708      30.71226426
C       -3.21337652      -1.69773471      -1.86627722      30.71226426
H       -2.44818163      -1.52596688      -2.62613177      30.71226426
C       -5.15084410      -2.17867470       0.09847017      30.71226426
H       -5.91431952      -2.38820076       0.84904730      30.71226426
C       -4.30999517      -2.50941443      -2.16268897      30.71226426
H       -4.43205786      -2.97397757      -3.14314723      30.71226426
C       -5.26237059      -2.73929048      -1.17374551      30.71226426
F       -6.31363916      -3.52276039      -1.44836450      30.71226426
C       -3.36733794       1.88398671       0.41422579      30.71226426
H       -3.99409652       1.48144627      -0.38350740      30.71226426
C       -1.37511337       1.79557168       1.77738798      30.71226426
H       -0.43458632       1.31550193       2.04213715      30.71226426
C       -3.80083728       3.01163459       1.11130524      30.71226426
H       -4.74683857       3.50254488       0.87652713      30.71226426
C       -1.79266632       2.92179346       2.48256087      30.71226426
H       -1.19825172       3.33639622       3.29859400      30.71226426
C       -3.00800896       3.51044917       2.14365745      30.71226426
F       -3.42895603       4.57808161       2.83106375      30.71226426
