70
Properties=species:S:1:pos:R:3:energy:R:1 pbc="F F F"
C        0.96961051      -3.62798977       0.19744876      33.41726633
H        1.39774358      -4.03343630      -0.72295386      33.41726633
H        1.70181763      -3.45998406       0.99127603      33.41726633
C       -0.37707666      -3.90005183       0.50198638      33.41726633
H       -1.00015831      -4.48902035      -0.17466103      33.41726633
H       -0.67727488      -3.96106339       1.55242443      33.41726633
H       -0.76389354      -1.75810432       1.18642294      33.41726633
Rh      -0.11694831      -1.77755296      -0.27337542      33.41726633
C        1.37219584      -0.04500419       2.52260375      33.41726633
C        3.29056931      -0.86453229       0.50790942      33.41726633
C        1.68782496       1.39171314       0.03134342      33.41726633
C       -1.92740273       0.42338073      -2.49278092      33.41726633
C       -3.41257668      -0.68573886      -0.25009224      33.41726633
C       -1.62128985       1.50560796       0.17504320      33.41726633
P       -1.73371840      -0.11294572      -0.71352112      33.41726633
P        1.53705227      -0.32344547       0.69365698      33.41726633
C       -0.01636257      -2.25187302      -2.13224053      33.41726633
O       -0.16481623      -2.67055726      -3.20052862      33.41726633
H        0.44816971       0.54008389       2.64523458      33.41726633
C        1.29419458      -1.34801292       3.31640100      33.41726633
H        2.20976853      -1.94837451       3.19625950      33.41726633
H        0.44223362      -1.95669842       2.97908926      33.41726633
H        2.19518399       0.58508235       2.89524174      33.41726633
H        1.16497827      -1.14277852       4.39114380      33.41726633
C        4.32126570      -0.41648453       1.34796643      33.41726633
H        4.10498095       0.25389165       2.18244195      33.41726633
C        3.61204123      -1.70475447      -0.56707609      33.41726633
H        2.80974269      -2.05366278      -1.22011113      33.41726633
C        5.64308643      -0.80266857       1.12834477      33.41726633
H        6.45464325      -0.46153387       1.77407777      33.41726633
C        4.93044090      -2.09243608      -0.80809647      33.41726633
H        5.19170618      -2.74424958      -1.64388227      33.41726633
C        5.92882299      -1.63673997       0.04847996      33.41726633
F        7.19761419      -2.00796747      -0.16846779      33.41726633
C        1.66704297       1.53546798      -1.36508524      33.41726633
H        1.52565217       0.64724988      -1.98700368      33.41726633
C        1.84422684       2.53737903       0.82253194      33.41726633
H        1.85075140       2.46667957       1.91040730      33.41726633
C        1.81110442       2.78556776      -1.96398461      33.41726633
H        1.80034482       2.90875745      -3.04870105      33.41726633
C        1.97852063       3.79892921       0.23872413      33.41726633
H        2.08395076       4.70063114       0.84495866      33.41726633
C        1.96180964       3.90505958      -1.14751554      33.41726633
F        2.07358956       5.11695099      -1.71251774      33.41726633
H       -1.86503613      -0.50399244      -3.08042550      33.41726633
C       -3.19202185       1.19841361      -2.86805940      33.41726633
H       -3.30680323       2.12715411      -2.28943205      33.41726633
H       -4.09337378       0.59120315      -2.70019388      33.41726633
H       -1.01548386       0.99237382      -2.74146438      33.41726633
H       -3.16939569       1.47376454      -3.93543959      33.41726633
C       -4.47244120       0.17539614       0.06738454      33.41726633
H       -4.32515717       1.25715590       0.04807089      33.41726633
C       -3.61648798      -2.07157183      -0.20334753      33.41726633
H       -2.76864600      -2.72646999      -0.41719353      33.41726633
C       -5.71581841      -0.34125105       0.43245241      33.41726633
H       -6.55083227       0.31006718       0.69549888      33.41726633
C       -4.85451984      -2.60235715       0.15006220      33.41726633
H       -5.01942635      -3.68028688       0.20068057      33.41726633
C       -5.88751936      -1.72474825       0.46859136      33.41726633
F       -7.07696581      -2.22316957       0.83043468      33.41726633
C       -1.76927245       1.50387967       1.57149899      33.41726633
H       -1.96559334       0.56145954       2.08738899      33.41726633
C       -1.37190998       2.73229122      -0.46180210      33.41726633
H       -1.22688568       2.78588986      -1.53948343      33.41726633
C       -1.67665744       2.68189073       2.31352377      33.41726633
H       -1.79280579       2.68778586       3.39891934      33.41726633
C       -1.27822459       3.92099690       0.26514733      33.41726633
H       -1.07324386       4.87537003      -0.22392876      33.41726633
C       -1.42999935       3.87951565       1.64635623      33.41726633
F       -1.32870448       5.01502705       2.35210633      33.41726633
