80
Properties=species:S:1:pos:R:3:energy:R:1 pbc="F F F"
C        0.38004857      -3.41851830      -1.48185813      40.23860169
H        0.22199984      -4.18378782      -0.71749556      40.23860169
H       -0.44571996      -3.31997442      -2.19274139      40.23860169
C        1.69161439      -3.06352496      -1.84416842      40.23860169
H        2.56500125      -3.49594736      -1.35385096      40.23860169
H        1.87917936      -2.69763851      -2.85718322      40.23860169
H        1.20718491      -0.87475765      -1.87198186      40.23860169
Rh       0.78149641      -1.49767959      -0.47717991      40.23860169
C       -1.15120363       0.38914624      -2.71260667      40.23860169
O       -2.67961144      -1.19117188      -1.36037505      40.23860169
O       -1.65948725       0.82509381      -0.04546903      40.23860169
C        0.96125114       1.05874085       2.06005836      40.23860169
O        3.21514153       0.42019764       0.92834044      40.23860169
O        1.46364307       1.73155916      -0.53672802      40.23860169
P        1.60435593       0.41654599       0.47559738      40.23860169
P       -1.21580887      -0.43316323      -1.08115590      40.23860169
C        1.10579753      -2.47908020       1.16410708      40.23860169
O        1.53093207      -3.09471345       2.04269052      40.23860169
H       -0.37623557       1.16780102      -2.65523815      40.23860169
H       -0.83585161      -0.36161229      -3.45205760      40.23860169
H       -2.12151599       0.81151664      -3.00457978      40.23860169
C       -3.36414433      -1.93402529      -0.41965362      40.23860169
C       -2.71930504      -2.77908444       0.48423851      40.23860169
H       -1.63380551      -2.85430622       0.46753564      40.23860169
C       -4.76265621      -1.79388440      -0.43606019      40.23860169
C       -5.41235495      -0.87124681      -1.42947209      40.23860169
H       -5.08968401       0.16935688      -1.27105808      40.23860169
H       -5.12732553      -1.13455617      -2.46074963      40.23860169
H       -6.50772858      -0.90967929      -1.34640515      40.23860169
C       -3.47576141      -3.49323416       1.41560960      40.23860169
H       -2.96903062      -4.14660311       2.13018012      40.23860169
C       -5.49468517      -2.52788806       0.50432026      40.23860169
H       -6.58373737      -2.43195128       0.51034909      40.23860169
C       -4.86557293      -3.36776185       1.42965281      40.23860169
H       -5.46194410      -3.92472315       2.15581822      40.23860169
C       -2.88450670       1.45874429       0.00751431      40.23860169
C       -3.24613404       2.38830423      -0.97522509      40.23860169
H       -2.55127931       2.60655475      -1.78565335      40.23860169
C       -3.72044349       1.19438386       1.10683095      40.23860169
C       -3.31762695       0.24057046       2.19974566      40.23860169
H       -3.91896820      -0.68110108       2.16044903      40.23860169
H       -2.26354885      -0.04982618       2.11233091      40.23860169
H       -3.47712231       0.69915771       3.18884754      40.23860169
C       -4.48003483       3.03514338      -0.90227592      40.23860169
H       -4.76311111       3.75337958      -1.67550969      40.23860169
C       -4.95306826       1.86165178       1.15478790      40.23860169
H       -5.62063026       1.66171575       1.99753177      40.23860169
C       -5.34268332       2.76214504       0.16255999      40.23860169
H       -6.31368446       3.25866508       0.22594477      40.23860169
H        1.07426059       0.27382606       2.82150388      40.23860169
H        1.52876437       1.94993412       2.36634421      40.23860169
H       -0.10109202       1.31146085       1.95041263      40.23860169
C        4.10391665      -0.38769448       0.24736990      40.23860169
C        4.10050869      -0.43036434      -1.14702165      40.23860169
H        3.39973235       0.19261990      -1.70014584      40.23860169
C        4.97131395      -1.17818415       1.01431012      40.23860169
C        4.91262007      -1.12911737       2.51743340      40.23860169
H        4.96691513      -0.09359715       2.88902116      40.23860169
H        3.96242023      -1.55021191       2.88824892      40.23860169
H        5.73593235      -1.70508504       2.96406817      40.23860169
C        4.96885633      -1.29420507      -1.81135201      40.23860169
H        4.94390154      -1.34652519      -2.90219378      40.23860169
C        5.85209179      -2.01839018       0.32058382      40.23860169
H        6.54633474      -2.63860106       0.89363497      40.23860169
C        5.84920073      -2.08913755      -1.07593358      40.23860169
H        6.53679419      -2.76447082      -1.58938360      40.23860169
C        1.44313133       3.06702971      -0.15721750      40.23860169
C        0.21149422       3.65895271       0.13329907      40.23860169
H       -0.68573093       3.04289484       0.10337201      40.23860169
C        2.63868189       3.80611539      -0.14446647      40.23860169
C        3.95924115       3.16311407      -0.46673304      40.23860169
H        4.26952219       2.47733784       0.33532515      40.23860169
H        3.89531088       2.55918598      -1.38430643      40.23860169
H        4.74339628       3.92137623      -0.60005569      40.23860169
C        0.15118432       5.01678085       0.45206434      40.23860169
H       -0.81315297       5.47841883       0.67809910      40.23860169
C        2.54602790       5.16915178       0.17403103      40.23860169
H        3.46251202       5.76570082       0.18061052      40.23860169
C        1.32369637       5.77542448       0.47225916      40.23860169
H        1.28921759       6.84077406       0.71308255      40.23860169
