86
Properties=species:S:1:pos:R:3:energy:R:1 pbc="F F F"
C        0.99099970      -2.56192875       2.50859976      89.70445507
H        1.35455048      -3.44960308       1.98424041      89.70445507
H        1.78162587      -1.95189500       2.95247221      89.70445507
C       -0.29754934      -2.56014299       3.07787848      89.70445507
H       -0.95667821      -3.42563725       2.99176598      89.70445507
H       -0.47295654      -1.94930232       3.96813536      89.70445507
H       -0.69577062      -0.42127511       2.32474375      89.70445507
Rh      -0.25104579      -1.38546276       1.13369524      89.70445507
O        1.85117102       1.34296024       1.70385730      89.70445507
C        3.24882579      -0.78537744       0.69544756      89.70445507
C        1.73371506       1.04581344      -0.91377157      89.70445507
O       -1.19294083       0.34017903      -1.55094850      89.70445507
C       -3.31618953      -1.15078402      -0.63065988      89.70445507
C       -2.44639707       1.35380340       0.66060579      89.70445507
P       -1.81527984      -0.21052538      -0.08924713      89.70445507
P        1.60269225       0.05579738       0.64191300      89.70445507
C       -0.54724824      -2.96285605       0.06141526      89.70445507
O       -0.92944199      -3.95196271      -0.39879876      89.70445507
C        1.54499483       1.22295928       3.07889462      89.70445507
H        0.56633514       0.73381799       3.22596931      89.70445507
H        2.31218719       0.64080608       3.62176228      89.70445507
H        1.50870168       2.23834038       3.50221372      89.70445507
H        4.04918957      -0.03190267       0.62763649      89.70445507
H        3.33363485      -1.25727451       1.68663073      89.70445507
C        3.36824679      -1.84558260      -0.40015751      89.70445507
H        2.46788931      -2.48416305      -0.38034585      89.70445507
H        3.36825848      -1.35660815      -1.39079833      89.70445507
C        4.61480427      -2.71908236      -0.26989552      89.70445507
H        4.60956001      -3.21006966       0.72103250      89.70445507
H        5.51736116      -2.08005524      -0.28515774      89.70445507
C        4.72339821      -3.78357601      -1.36250198      89.70445507
H        3.81332922      -4.41054773      -1.34641957      89.70445507
H        4.72748327      -3.28862143      -2.35103703      89.70445507
C        5.96177578      -4.66715288      -1.22236633      89.70445507
H        6.01365328      -5.42672968      -2.01871085      89.70445507
H        5.96423006      -5.19644594      -0.25445369      89.70445507
H        6.88639069      -4.06726694      -1.27056527      89.70445507
H        1.61693251       0.32734346      -1.74147081      89.70445507
H        0.82631785       1.66430151      -0.94646454      89.70445507
C        2.98534560       1.90992570      -1.08086133      89.70445507
H        3.13212585       2.51357794      -0.16993497      89.70445507
H        3.87888837       1.26871824      -1.17529917      89.70445507
C        2.90919280       2.83288479      -2.30079126      89.70445507
H        2.02647161       3.49252653      -2.20363021      89.70445507
H        2.73310614       2.22829294      -3.21044612      89.70445507
C        4.16084337       3.69169879      -2.49980378      89.70445507
H        4.34088707       4.28467751      -1.58459723      89.70445507
H        5.04056358       3.03061271      -2.60552549      89.70445507
C        4.07470131       4.62501764      -3.70762348      89.70445507
H        4.99050379       5.22716475      -3.82284021      89.70445507
H        3.22655725       5.32445669      -3.61367154      89.70445507
H        3.92977166       4.05751181      -4.64263535      89.70445507
C       -1.93287921       1.07792437      -2.50710392      89.70445507
H       -2.62490797       0.43530473      -3.07999110      89.70445507
H       -2.51741672       1.89938283      -2.05504584      89.70445507
H       -1.21739233       1.52446115      -3.21586347      89.70445507
H       -2.97542429      -1.73034632      -1.50752640      89.70445507
H       -3.48307967      -1.89284241       0.16498336      89.70445507
C       -4.61808729      -0.40974408      -0.93283266      89.70445507
H       -4.94543695       0.14117178      -0.03485233      89.70445507
H       -4.47096062       0.35133690      -1.71691918      89.70445507
C       -5.73114729      -1.36544931      -1.36207032      89.70445507
H       -5.85115290      -2.14671397      -0.58915675      89.70445507
H       -5.42115688      -1.89889133      -2.27985144      89.70445507
C       -7.07291365      -0.67356986      -1.59850729      89.70445507
H       -7.36323500      -0.12927532      -0.68126082      89.70445507
H       -6.95125341       0.09887420      -2.38006592      89.70445507
C       -8.18360233      -1.64350367      -1.99602091      89.70445507
H       -9.14147282      -1.12387991      -2.15592098      89.70445507
H       -8.34178257      -2.40545893      -1.21419859      89.70445507
H       -7.93103790      -2.17720604      -2.92766213      89.70445507
H       -3.31033564       1.74303615       0.09982575      89.70445507
H       -2.81047654       1.05356061       1.65608239      89.70445507
C       -1.36093938       2.42709923       0.78684324      89.70445507
H       -0.42124656       1.97570586       1.13388872      89.70445507
H       -1.14132822       2.84729481      -0.21028458      89.70445507
C       -1.74160099       3.55556202       1.74354255      89.70445507
H       -1.92964435       3.12282252       2.74356556      89.70445507
H       -2.69807172       4.01227570       1.42684770      89.70445507
C       -0.66746700       4.63894892       1.85651398      89.70445507
H        0.29386204       4.16489601       2.12442493      89.70445507
H       -0.50611144       5.09633112       0.86314899      89.70445507
C       -1.01647758       5.72382307       2.87450528      89.70445507
H       -0.23223619       6.49508667       2.93680048      89.70445507
H       -1.14438581       5.29496765       3.88292575      89.70445507
H       -1.96177387       6.22845316       2.61169624      89.70445507
