60
Properties=species:S:1:pos:R:3:energy:R:1 pbc="F F F"
C       -1.10175979      -2.95963359      -0.81581932      66.73743499
H       -1.20706832      -3.64531064       0.02847309      66.73743499
H       -2.05005312      -2.63243008      -1.24825573      66.73743499
C        0.05963111      -3.00318050      -1.60120583      66.73743499
H        0.87338978      -3.69876146      -1.38554835      66.73743499
H        0.00017175      -2.68170881      -2.64517617      66.73743499
H        0.57182175      -0.81247711      -1.63147485      66.73743499
Rh       0.11385941      -1.23243749      -0.15042292      66.73743499
C       -1.44669306       1.24017680      -2.22232008      66.73743499
C       -3.36310506      -0.29113361      -0.77434826      66.73743499
C       -1.89854205       1.80804813       0.57371736      66.73743499
C        1.52246273       1.03759408       2.22940278      66.73743499
C        3.42707849      -0.37607285       0.64518338      66.73743499
C        1.91251588       1.83907938      -0.51041317      66.73743499
P        1.71753287       0.31335413       0.53493673      66.73743499
P       -1.64229703       0.37728140      -0.59495407      66.73743499
C        0.40266234      -2.16549516       1.49689341      66.73743499
O        0.79124147      -2.79327226       2.39063215      66.73743499
H       -0.50823653       1.81332421      -2.21734929      66.73743499
H       -1.35577178       0.46971148      -3.00231552      66.73743499
H       -2.28372216       1.91074455      -2.47102356      66.73743499
H       -4.03722239       0.48750553      -1.16948688      66.73743499
H       -3.30511928      -1.07160842      -1.55172420      66.73743499
C       -3.90291286      -0.88267708       0.52788848      66.73743499
H       -4.06628275      -0.06926548       1.25687420      66.73743499
H       -3.13004589      -1.53461432       0.97016138      66.73743499
C       -5.20178270      -1.66321445       0.33529761      66.73743499
H       -5.98676300      -1.03156924      -0.11375015      66.73743499
H       -5.04695082      -2.52568913      -0.33421415      66.73743499
H       -5.58652544      -2.04727459       1.29354417      66.73743499
H       -2.00314617       1.36118126       1.57672894      66.73743499
H       -0.94063240       2.35560966       0.59419852      66.73743499
C       -3.04768205       2.77759767       0.29269323      66.73743499
H       -4.00362301       2.22780919       0.29188961      66.73743499
H       -2.93969107       3.20034099      -0.72062486      66.73743499
C       -3.12171507       3.91451311       1.31260097      66.73743499
H       -3.25886798       3.52245522       2.33420038      66.73743499
H       -2.19579935       4.51408243       1.31076014      66.73743499
H       -3.96189499       4.59453821       1.09835005      66.73743499
H        1.47358263       0.22394134       2.96756840      66.73743499
H        2.36716938       1.69672990       2.48622179      66.73743499
H        0.58778363       1.61312592       2.29409766      66.73743499
H        4.13063049       0.38279447       1.02910650      66.73743499
H        3.36569071      -1.17546928       1.40321803      66.73743499
C        3.88324785      -0.94861287      -0.69493932      66.73743499
H        3.98362851      -0.12797333      -1.42802894      66.73743499
H        3.07747626      -1.59849751      -1.07533348      66.73743499
C        5.19265747      -1.72469521      -0.59988624      66.73743499
H        6.01289368      -1.09044218      -0.22381215      66.73743499
H        5.08914042      -2.57906604       0.08947263      66.73743499
H        5.49375200      -2.11953235      -1.58318603      66.73743499
H        1.93396211       1.48567080      -1.55304933      66.73743499
H        0.96927112       2.40079308      -0.40233141      66.73743499
C        3.10415077       2.75856709      -0.22943322      66.73743499
H        4.04336071       2.19163775      -0.33938646      66.73743499
H        3.07928443       3.10678124       0.81754720      66.73743499
C        3.13788319       3.96917129      -1.16516531      66.73743499
H        3.18363786       3.65245748      -2.22049189      66.73743499
H        2.23689318       4.59419537      -1.04669058      66.73743499
H        4.01543474       4.60609198      -0.96876699      66.73743499
