76
Properties=species:S:1:pos:R:3:energy:R:1 pbc="F F F"
C        0.94211614      -3.39100885       1.51867723      37.06203244
H        1.22469711      -4.17732811       0.81406373      37.06203244
H        1.77962852      -2.99174476       2.09900951      37.06203244
C       -0.36624944      -3.37249613       2.03508496      37.06203244
H       -1.11270607      -4.10808229       1.72832513      37.06203244
H       -0.53510457      -2.95062804       3.03050256      37.06203244
H       -0.71052545      -1.19820487       1.75051093      37.06203244
Rh      -0.10156490      -1.80704689       0.40426558      37.06203244
C        1.79732180       0.17222516       2.62948060      37.06203244
C        3.36091042      -0.73255044       0.39351237      37.06203244
C        1.64705861       1.46457899       0.07133889      37.06203244
C       -1.32146966      -0.01307236      -2.45880556      37.06203244
C       -3.32606721      -0.83063632      -0.59696287      37.06203244
C       -1.65721440       1.38106573       0.04529925      37.06203244
P       -1.56529653      -0.31951529      -0.65116006      37.06203244
P        1.64887285      -0.21319345       0.82840902      37.06203244
C       -0.09675484      -2.94294024      -1.14435375      37.06203244
O       -0.28063896      -3.69633794      -2.00371003      37.06203244
H        0.85851878       0.63652796       2.96406865      37.06203244
H        1.91376686      -0.77955586       3.16716027      37.06203244
H        2.64416313       0.83212125       2.86936378      37.06203244
C        4.47049475       0.07592301       0.68689209      37.06203244
H        4.32785320       1.03458822       1.19280696      37.06203244
C        3.56502914      -1.93242776      -0.29343733      37.06203244
H        2.70034170      -2.55115700      -0.54142153      37.06203244
C        5.75110865      -0.31808904       0.31078458      37.06203244
H        6.60312700       0.32867464       0.54019701      37.06203244
C        4.85204554      -2.32341862      -0.67162627      37.06203244
H        4.99024200      -3.26262164      -1.21477377      37.06203244
C        5.96491671      -1.52787673      -0.37360314      37.06203244
C        7.35717344      -1.95429993      -0.76046038      37.06203244
H        7.91364574      -2.32429385       0.11866508      37.06203244
H        7.33843088      -2.76279283      -1.50667763      37.06203244
H        7.93297148      -1.11235297      -1.17750525      37.06203244
C        1.48474228       2.65473866       0.79074991      37.06203244
H        1.35308361       2.63593531       1.87266505      37.06203244
C        1.79989660       1.54803002      -1.32171690      37.06203244
H        1.94089270       0.63069493      -1.90010202      37.06203244
C        1.47263539       3.88721585       0.13411948      37.06203244
H        1.33906484       4.80221653       0.71839631      37.06203244
C        1.78895462       2.77944469      -1.97167671      37.06203244
H        1.91664195       2.81672978      -3.05754280      37.06203244
C        1.61931109       3.97522068      -1.25525975      37.06203244
C        1.55438507       5.30400133      -1.96299517      37.06203244
H        2.15238690       5.30167818      -2.88747859      37.06203244
H        0.51517344       5.54866743      -2.24802661      37.06203244
H        1.91598403       6.12305355      -1.32230246      37.06203244
H       -1.31980562      -0.98307449      -2.97499847      37.06203244
H       -2.13085723       0.60519540      -2.87552190      37.06203244
H       -0.35764539       0.48489881      -2.63225293      37.06203244
C       -3.63143516      -2.09204626      -0.08136319      37.06203244
H       -2.80844259      -2.72498512       0.26143602      37.06203244
C       -4.36753178       0.00655730      -1.02353907      37.06203244
H       -4.14586449       1.00514984      -1.41088343      37.06203244
C       -4.95803547      -2.51396632       0.01063920      37.06203244
H       -5.17895126      -3.50168300       0.42515078      37.06203244
C       -5.68950891      -0.41867390      -0.92819053      37.06203244
H       -6.49428415       0.24745408      -1.25308883      37.06203244
C       -6.00694895      -1.68523502      -0.40500715      37.06203244
C       -7.44070387      -2.13329911      -0.29836830      37.06203244
H       -7.86983109      -2.32328820      -1.29774880      37.06203244
H       -7.52602768      -3.06088090       0.28789851      37.06203244
H       -8.06390953      -1.36154521       0.18336315      37.06203244
C       -1.66577518       2.55512857      -0.71819061      37.06203244
H       -1.56428289       2.51860142      -1.80352116      37.06203244
C       -1.76673758       1.49283671       1.43838799      37.06203244
H       -1.74474549       0.58262962       2.04086876      37.06203244
C       -1.78278399       3.80279040      -0.09850745      37.06203244
H       -1.77564228       4.70859051      -0.71194798      37.06203244
C       -1.88912177       2.73605490       2.04940605      37.06203244
H       -1.97678006       2.79214120       3.13806438      37.06203244
C       -1.89460969       3.91750169       1.29237890      37.06203244
C       -1.96845818       5.26106358       1.96985483      37.06203244
H       -2.59063721       5.21911621       2.87754369      37.06203244
H       -0.96372020       5.59838533       2.28200984      37.06203244
H       -2.38174558       6.03365135       1.30410814      37.06203244
