106
Properties=species:S:1:pos:R:3:energy:R:1 pbc="F F F"
C        1.21796525      -0.98976600      -3.42771864      86.21293440
H        1.52755487      -1.98270082      -3.76641464      86.21293440
H        0.35846418      -0.59668547      -3.97679663      86.21293440
C        2.23124456      -0.05965256      -2.99644017      86.21293440
H        3.26829600      -0.41268876      -2.96608996      86.21293440
H        2.15365124       0.97935981      -3.32840300      86.21293440
H        1.77373695       0.48922762      -1.63047230      86.21293440
Rh       1.05695689      -0.96902448      -1.27116215      86.21293440
C       -0.85525525       2.01229620      -0.57769680      86.21293440
C       -1.89679742       0.50587487      -2.79139972      86.21293440
C       -2.29741573      -0.43918958      -0.08527444      86.21293440
C        0.13735931      -1.18964350       2.15748549      86.21293440
C        2.84262466      -1.85906088       1.67623377      86.21293440
C        2.00601196       0.94916171       1.61691129      86.21293440
P        1.51793647      -0.74076551       1.01374996      86.21293440
P       -0.99689978       0.27877772      -1.18199944      86.21293440
C        1.34638035      -2.82159185      -1.18211269      86.21293440
O        1.68591928      -3.93133307      -1.12791753      86.21293440
C       -0.28409064       2.99238443      -1.41626143      86.21293440
H        0.00664386       2.73256922      -2.43740726      86.21293440
C       -1.17711151       2.39282799       0.73193824      86.21293440
H       -1.59854972       1.66452944       1.42630136      86.21293440
C       -0.06576887       4.29070759      -0.97314054      86.21293440
H        0.37190872       5.04802942      -1.62638426      86.21293440
C       -0.95290941       3.69509435       1.19826889      86.21293440
H       -1.21378744       3.94139385       2.22750878      86.21293440
C       -0.39671659       4.65533924       0.34360659      86.21293440
O       -0.12303363       5.93826246       0.69737935      86.21293440
C       -0.39865199       6.35632563       2.01519847      86.21293440
H        0.18066330       5.77691889       2.75672984      86.21293440
H       -0.10401262       7.41241217       2.07777858      86.21293440
H       -1.47344875       6.26857948       2.25700426      86.21293440
H       -2.72519422       1.22278488      -2.67120838      86.21293440
H       -1.18161750       0.96196252      -3.49601698      86.21293440
C       -2.38839912      -0.83402032      -3.34242463      86.21293440
H       -1.58863020      -1.58625150      -3.22929239      86.21293440
H       -3.23126864      -1.19609833      -2.72886300      86.21293440
C       -2.82345104      -0.76828963      -4.80545568      86.21293440
H       -1.96859956      -0.43425885      -5.42288971      86.21293440
H       -3.60432816       0.00561817      -4.92716360      86.21293440
C       -3.34100819      -2.10487843      -5.33772039      86.21293440
H       -2.55704689      -2.87224698      -5.20407104      86.21293440
H       -4.19258928      -2.43488884      -4.71477318      86.21293440
C       -3.76580906      -2.04938722      -6.80367184      86.21293440
H       -4.13861036      -3.02395248      -7.15723658      86.21293440
H       -2.92129850      -1.75919783      -7.45131540      86.21293440
H       -4.56817198      -1.30801189      -6.95781517      86.21293440
H       -2.34859991      -1.50325668      -0.36457762      86.21293440
H       -1.85607326      -0.44110617       0.91854972      86.21293440
C       -3.69123149       0.17861524      -0.03427824      86.21293440
H       -3.62237906       1.26336694       0.15317450      86.21293440
H       -4.19924879       0.06957054      -1.00780654      86.21293440
C       -4.52850723      -0.47987261       1.06435680      86.21293440
H       -3.99040127      -0.39272732       2.02536106      86.21293440
H       -4.59353495      -1.56609941       0.86372697      86.21293440
C       -5.93432951       0.09339963       1.22474861      86.21293440
H       -5.86061954       1.17683554       1.43058050      86.21293440
H       -6.48010254       0.00504664       0.26777580      86.21293440
C       -6.72166157      -0.59259015       2.34044433      86.21293440
H       -7.72464228      -0.15487944       2.46652150      86.21293440
H       -6.19180202      -0.50921303       3.30463767      86.21293440
H       -6.85027075      -1.66813588       2.12962461      86.21293440
C       -0.34043732      -0.33819297       3.17029858      86.21293440
H        0.15675312       0.60919446       3.37744546      86.21293440
C       -0.53358066      -2.40803075       1.96469045      86.21293440
H       -0.20256387      -3.08756542       1.17571616      86.21293440
C       -1.47046268      -0.66190898       3.91518402      86.21293440
H       -1.85329342       0.01035743       4.68563795      86.21293440
C       -1.65921462      -2.75621390       2.71767879      86.21293440
H       -2.15857244      -3.70545745       2.52257347      86.21293440
C       -2.15525818      -1.86484373       3.68236709      86.21293440
O       -3.27611923      -2.06193948       4.41928768      86.21293440
C       -4.06058407      -3.21321011       4.19641972      86.21293440
H       -3.50654531      -4.14033794       4.42898798      86.21293440
H       -4.92455101      -3.13585305       4.87043619      86.21293440
H       -4.42374039      -3.26221657       3.15457129      86.21293440
H        2.90828848      -1.72393107       2.76944327      86.21293440
H        2.47247815      -2.88259673       1.50016737      86.21293440
C        4.19717979      -1.66954625       0.99850005      86.21293440
H        4.03895998      -1.59032595      -0.09143586      86.21293440
H        4.63921547      -0.70925295       1.31716251      86.21293440
C        5.18266582      -2.80116987       1.28917074      86.21293440
H        4.74898148      -3.75414181       0.93405670      86.21293440
H        5.31216431      -2.91414118       2.38215137      86.21293440
C        6.54610109      -2.58366680       0.63222647      86.21293440
H        6.40091038      -2.45333886      -0.45553166      86.21293440
H        6.97232580      -1.63004065       0.99452794      86.21293440
C        7.53483200      -3.71943235       0.88725716      86.21293440
H        8.50525188      -3.52958965       0.40107316      86.21293440
H        7.14788628      -4.67709208       0.50044256      86.21293440
H        7.72136450      -3.85137177       1.96656609      86.21293440
H        1.06450188       1.49940014       1.75889301      86.21293440
H        2.48437142       0.85160112       2.60665584      86.21293440
C        2.86673212       1.74085093       0.63652295      86.21293440
H        3.86984634       1.29234219       0.54184240      86.21293440
H        2.40390229       1.64563179      -0.35717309      86.21293440
C        2.97883010       3.22980213       0.95921618      86.21293440
H        3.57669592       3.39151311       1.87567616      86.21293440
H        1.97136426       3.62523246       1.17392969      86.21293440
C        3.57758117       4.01919460      -0.20598716      86.21293440
H        4.59435606       3.64197111      -0.42031965      86.21293440
H        2.98036432       3.80416989      -1.11033487      86.21293440
C        3.61103988       5.52673244       0.03187346      86.21293440
H        4.04588556       6.06267023      -0.82737488      86.21293440
H        4.21415949       5.77705765       0.92098784      86.21293440
H        2.59359145       5.91875887       0.19616266      86.21293440
