58
Properties=species:S:1:pos:R:3:energy:R:1 pbc="F F F"
C       -2.99864411      -1.32620752      -0.86927652      43.28763467
H       -3.42401218      -2.32128119      -1.03265595      43.28763467
H       -3.58374190      -0.71730644      -0.17334765      43.28763467
C       -2.34186864      -0.63450366      -1.96339321      43.28763467
H       -2.25474858      -1.19735730      -2.90212822      43.28763467
H       -2.57338381       0.42253911      -2.11300230      43.28763467
H       -1.01289260      -0.16871388      -1.49271297      43.28763467
Rh      -0.88491511      -1.45054162      -0.42320937      43.28763467
O       -2.16139388       1.01772702       1.64018643      43.28763467
C       -2.47150636      -1.37332571       2.71529460      43.28763467
C        0.01116642      -0.04521872       2.82940197      43.28763467
O        1.92310500       0.20603670       0.24717580      43.28763467
C        2.22652411      -2.49105978       0.67090946      43.28763467
C        2.33237648      -1.43472588      -1.95016444      43.28763467
P        1.37422061      -1.26239574      -0.38985720      43.28763467
P       -1.31171143      -0.46633512       1.62197268      43.28763467
C       -0.82112157      -3.28229189      -0.95590889      43.28763467
O       -0.78279996      -4.32033396      -1.46566987      43.28763467
C       -2.13831568       1.88599038       0.58477259      43.28763467
C       -0.94853157       2.22862482      -0.06696238      43.28763467
H       -0.00344833       1.80551398       0.27328786      43.28763467
C       -3.37251377       2.42669892       0.17393965      43.28763467
C       -4.62990761       2.05724573       0.91154611      43.28763467
H       -5.50017071       2.59425712       0.50741875      43.28763467
H       -4.83009291       0.97472852       0.84345931      43.28763467
H       -4.54178143       2.28741217       1.98546529      43.28763467
C       -0.98392898       3.08707905      -1.16836023      43.28763467
H       -0.05448301       3.33554292      -1.68595421      43.28763467
C       -3.37748694       3.29285288      -0.92592728      43.28763467
H       -4.33017492       3.71382332      -1.25972176      43.28763467
C       -2.19957423       3.61423302      -1.60788786      43.28763467
H       -2.23289776       4.27809525      -2.47499704      43.28763467
H       -1.97680938      -2.30664778       3.02492881      43.28763467
H       -2.74359488      -0.77720171       3.59981394      43.28763467
H       -3.37462544      -1.63636076       2.14790297      43.28763467
H       -0.42496192       0.47690859       3.69421411      43.28763467
H        0.49926937      -0.97288275       3.16669750      43.28763467
H        0.76554674       0.58866769       2.34590960      43.28763467
C        3.23908424       0.61620736       0.25425124      43.28763467
C        4.08665419       0.22463030       1.29883099      43.28763467
H        3.69339705      -0.41416582       2.09065413      43.28763467
C        3.68949175       1.47983420      -0.76003516      43.28763467
C        2.77062869       1.94372630      -1.85918617      43.28763467
H        3.06065869       1.50969100      -2.83034134      43.28763467
H        1.73065925       1.65913701      -1.65858555      43.28763467
H        2.81564736       3.03888154      -1.96636915      43.28763467
C        5.41048956       0.66462237       1.32707596      43.28763467
H        6.06988192       0.35728177       2.14249825      43.28763467
C        5.02425575       1.90817094      -0.70622265      43.28763467
H        5.38992405       2.58053851      -1.48753417      43.28763467
C        5.88443279       1.50420380       0.31511244      43.28763467
H        6.91968250       1.85344720       0.32748571      43.28763467
H        1.86382604      -2.37507081       1.70167029      43.28763467
H        1.93783569      -3.49258018       0.31889951      43.28763467
H        3.31953835      -2.38457227       0.64002371      43.28763467
H        3.40916920      -1.25830698      -1.80090940      43.28763467
H        2.17844963      -2.46629906      -2.30213976      43.28763467
H        1.93968844      -0.74894357      -2.71194053      43.28763467
