76
Properties=species:S:1:pos:R:3:energy:R:1 pbc="F F F"
C       -3.99318767      -0.04676470      -1.56908834      63.94868887
H       -4.74898243      -0.81458604      -1.37882710      63.94868887
H       -4.25985956       0.94401824      -1.19064057      63.94868887
C       -3.14438224      -0.18265013      -2.69323826      63.94868887
H       -3.24894214      -1.02814353      -3.37687564      63.94868887
H       -2.74032640       0.72157735      -3.15805149      63.94868887
H       -1.45485246       0.69673133      -1.30067015      63.94868887
Rh      -2.02578902      -0.69493741      -0.84832704      63.94868887
O       -1.07010698       1.74226975       1.48851776      63.94868887
C       -3.48936582       0.86880857       2.08086562      63.94868887
C       -1.08680689      -0.66401470       2.61280370      63.94868887
O        0.97575682      -1.48689270       0.38418013      63.94868887
C        0.57992882      -2.89768767      -1.90267801      63.94868887
C        1.18553197      -0.04140049      -2.00681162      63.94868887
P        0.17232648      -1.28747725      -1.10819423      63.94868887
P       -1.93633592       0.28045344       1.28022456      63.94868887
C       -2.63387394      -2.52443886      -0.69439405      63.94868887
O       -2.93467593      -3.63461757      -0.76337719      63.94868887
C       -0.29465771       2.40570498       0.59489042      63.94868887
C       -0.78023380       2.83560729      -0.64828569      63.94868887
H       -1.81981468       2.65185332      -0.91031885      63.94868887
C        1.02088892       2.71904850       0.96390045      63.94868887
H        1.36597633       2.43270993       1.95917189      63.94868887
C        0.06840072       3.47823882      -1.54936457      63.94868887
H       -0.29432231       3.77080059      -2.53565812      63.94868887
C        1.86450219       3.39195442       0.07889688      63.94868887
H        2.88824081       3.64047933       0.36342725      63.94868887
C        1.39256203       3.73649049      -1.19002843      63.94868887
Cl       2.46925139       4.50329399      -2.33603334      63.94868887
H       -3.93015575       1.58254707       1.36386061      63.94868887
H       -4.17442894       0.00379697       2.10826707      63.94868887
C       -3.32599425       1.51418328       3.45965457      63.94868887
H       -2.52751184       2.27114987       3.40255451      63.94868887
H       -2.97986794       0.75574678       4.18185663      63.94868887
C       -4.61312008       2.15479732       3.97439885      63.94868887
H       -4.96020603       2.95053220       3.29440546      63.94868887
H       -5.42475462       1.41340196       4.06086063      63.94868887
H       -4.46243334       2.60635471       4.96823692      63.94868887
H       -0.07192608      -0.83389997       2.22708869      63.94868887
H       -1.00851250      -0.02914670       3.50894761      63.94868887
C       -1.75358224      -2.00402665       2.92345119      63.94868887
H       -1.87494266      -2.57225537       1.98641443      63.94868887
H       -2.77333021      -1.83764231       3.31427956      63.94868887
C       -0.94574666      -2.83050561       3.92339754      63.94868887
H        0.06058540      -3.04549861       3.52747297      63.94868887
H       -0.81897944      -2.29117894       4.87689352      63.94868887
H       -1.43703544      -3.79194880       4.14247942      63.94868887
C        2.32971740      -1.48264587       0.59098631      63.94868887
C        2.98975921      -0.26658762       0.80036491      63.94868887
H        2.41548777       0.65688199       0.76083368      63.94868887
C        3.04606986      -2.68343472       0.65721637      63.94868887
H        2.52026582      -3.63006115       0.52179790      63.94868887
C        4.36183834      -0.24101698       1.04006064      63.94868887
H        4.88134241       0.70649934       1.19137967      63.94868887
C        4.42081070      -2.66413355       0.90437543      63.94868887
H        4.99001360      -3.59349251       0.95966518      63.94868887
C        5.07433319      -1.44242394       1.08659482      63.94868887
Cl       6.79555464      -1.41460097       1.38832724      63.94868887
H        1.67306411      -3.03784966      -1.92319977      63.94868887
H        0.16320160      -3.67265749      -1.23690581      63.94868887
C       -0.02707458      -3.01669669      -3.30184960      63.94868887
H        0.41625166      -2.25023293      -3.96088099      63.94868887
H       -1.10095608      -2.77566290      -3.24256420      63.94868887
C        0.16957103      -4.40291929      -3.91082001      63.94868887
H        1.23951316      -4.65760994      -3.99084210      63.94868887
H       -0.31215584      -5.17537546      -3.28879333      63.94868887
H       -0.26829863      -4.46176291      -4.91961193      63.94868887
H        0.50124979       0.32132313      -2.79045439      63.94868887
H        1.28459048       0.80692035      -1.31158018      63.94868887
C        2.53481555      -0.41899532      -2.61573458      63.94868887
H        2.38563728      -1.18536139      -3.39486718      63.94868887
H        3.19166183      -0.87291670      -1.85870564      63.94868887
C        3.21089125       0.81088179      -3.22020507      63.94868887
H        2.55682492       1.29353905      -3.96520948      63.94868887
H        3.42210031       1.56527030      -2.44597077      63.94868887
H        4.15969229       0.55273831      -3.71533608      63.94868887
