70
Properties=species:S:1:pos:R:3:energy:R:1 pbc="F F F"
C       -2.17728949      -2.89942789      -0.07869544      54.97109683
H       -1.96771538      -3.73837805       0.59182674      54.97109683
H       -3.08750725      -2.34652567       0.16664782      54.97109683
C       -1.71716344      -2.95911384      -1.41547179      54.97109683
H       -1.15948689      -3.82530499      -1.77924800      54.97109683
H       -2.29101920      -2.44172764      -2.18928385      54.97109683
H       -1.30671716      -0.70532125      -1.23358202      54.97109683
Rh      -0.46616396      -1.56207943      -0.21075776      54.97109683
C       -1.78820229       1.73136628       0.36075386      54.97109683
C       -2.83850765      -0.24800812       2.18666553      54.97109683
C       -0.20190799       0.83696896       2.59238577      54.97109683
C        2.70172095       0.16162317       0.20019265      54.97109683
C        2.48110795      -1.28197920      -2.22539735      54.97109683
C        0.97161061       1.24640310      -1.88524318      54.97109683
P        1.39640462      -0.35506243      -1.03496361      54.97109683
P       -1.29555917       0.17649895       1.23747361      54.97109683
C        0.64835662      -2.95012593       0.52192509      54.97109683
O        1.30336046      -3.88187289       0.72145075      54.97109683
C       -1.06802368       2.92793798       0.47569180      54.97109683
H       -0.21677823       2.98309731       1.15448821      54.97109683
C       -2.86273146       1.70401621      -0.56158686      54.97109683
O       -3.52093720       0.52353764      -0.67493653      54.97109683
C       -4.49210787       0.34788170      -1.67988515      54.97109683
H       -5.37111378       0.99663436      -1.51515746      54.97109683
H       -4.80496979      -0.70320773      -1.62529409      54.97109683
H       -4.07916975       0.54908246      -2.68389773      54.97109683
C       -1.39458644       4.06659842      -0.26900521      54.97109683
H       -0.81387454       4.98384714      -0.14684519      54.97109683
C       -3.19687295       2.83885741      -1.31232440      54.97109683
H       -4.02255678       2.80833769      -2.02296972      54.97109683
C       -2.46372604       4.01899672      -1.16074610      54.97109683
H       -2.73507667       4.90030289      -1.74789441      54.97109683
H       -3.57980418      -0.54596013       1.43430400      54.97109683
C       -2.59871459      -1.36981022       3.19464540      54.97109683
H       -1.91952097      -1.05643499       4.00338221      54.97109683
H       -2.14882469      -2.24590898       2.70312953      54.97109683
H       -3.22521520       0.66099387       2.67436743      54.97109683
H       -3.54521656      -1.68570793       3.66201019      54.97109683
H        0.67007321       1.28682351       2.09443259      54.97109683
C       -0.81893665       1.78912187       3.61665344      54.97109683
H       -1.56630456       1.27863276       4.24201059      54.97109683
H       -1.31924665       2.64446807       3.13895464      54.97109683
H        0.19611841      -0.06057835       3.09026313      54.97109683
H       -0.04246806       2.18803883       4.28993177      54.97109683
C        2.66045308      -0.39559129       1.48423696      54.97109683
H        1.84259129      -1.07574356       1.72036111      54.97109683
C        3.78531623       1.03034198      -0.09486962      54.97109683
O        3.86628652       1.52575469      -1.35900176      54.97109683
C        4.90869570       2.41057658      -1.70100045      54.97109683
H        4.88694572       3.32841063      -1.08644533      54.97109683
H        4.75168800       2.68232870      -2.75336552      54.97109683
H        5.90044832       1.93577886      -1.59615767      54.97109683
C        3.61796904      -0.10450535       2.46211052      54.97109683
H        3.55043030      -0.56284910       3.45126843      54.97109683
C        4.73861933       1.34362638       0.88598156      54.97109683
H        5.56218290       2.02082229       0.66127843      54.97109683
C        4.65223789       0.77657443       2.15993643      54.97109683
H        5.40879822       1.02646637       2.90906906      54.97109683
H        2.96049833      -2.05874205      -1.60628688      54.97109683
C        1.70318508      -1.92206573      -3.37154365      54.97109683
H        1.30549741      -1.16310513      -4.06246519      54.97109683
H        0.84853417      -2.49322677      -2.97671962      54.97109683
H        3.27639484      -0.60903502      -2.58246517      54.97109683
H        2.34616518      -2.60226440      -3.95234632      54.97109683
H        1.87238610       1.61094737      -2.39337492      54.97109683
C       -0.22037797       1.18900001      -2.83609056      54.97109683
H       -1.07615912       0.69603872      -2.35591078      54.97109683
H        0.01224389       0.62352729      -3.75115108      54.97109683
H        0.76068157       1.95310843      -1.06824100      54.97109683
H       -0.52920806       2.20584989      -3.12328720      54.97109683
