56
Properties=species:S:1:pos:R:3:energy:R:1 pbc="F F F"
C        1.38135040      -3.92475820      -0.27492791      41.79757459
H        1.06206632      -4.42199516      -1.19337654      41.79757459
H        2.40742183      -3.55258512      -0.30463701      41.79757459
C        0.79354382      -4.26933384       0.94934314      41.79757459
H       -0.00486422      -5.01244116       1.00702214      41.79757459
H        1.37248516      -4.14985418       1.86959493      41.79757459
H        0.30857530      -2.17623806       1.71305084      41.79757459
Rh      -0.05999116      -2.28424907       0.14717034      41.79757459
C        1.56838489       1.04498291       0.65120137      41.79757459
C        3.36051893      -1.17164361       0.58423334      41.79757459
C        2.24775839      -0.23869239      -1.87282073      41.79757459
C       -1.98921430       0.61353606      -0.74141866      41.79757459
C       -3.48647738      -1.41834819       0.63023335      41.79757459
C       -1.70963061       0.23578137       2.12934566      41.79757459
P       -1.77594864      -0.74002099       0.57053751      41.79757459
P        1.74050283      -0.65840679      -0.14668697      41.79757459
C       -1.18855643      -3.07297564      -1.18204343      41.79757459
O       -1.97805464      -3.69717932      -1.75894725      41.79757459
H        1.41687667       0.83930731       1.72226584      41.79757459
H        0.62967491       1.47139823       0.26981887      41.79757459
C        2.70124292       2.00709105       0.43838000      41.79757459
C        2.72055554       2.85548115      -0.68153304      41.79757459
H        1.87858117       2.83994746      -1.37883556      41.79757459
C        3.78715897       2.06295633       1.32827449      41.79757459
H        3.78570843       1.42612088       2.21674395      41.79757459
C        3.79311705       3.71896172      -0.91368371      41.79757459
H        3.78444219       4.37114143      -1.79089379      41.79757459
C        4.86271667       2.92411089       1.09859264      41.79757459
H        5.69666100       2.95024562       1.80492425      41.79757459
C        4.87280083       3.75308371      -0.02656804      41.79757459
H        5.71408415       4.42664480      -0.20777510      41.79757459
H        3.22512722      -1.33705282       1.66410184      41.79757459
H        3.68569350      -2.11959505       0.13401607      41.79757459
H        4.14551830      -0.41855091       0.42282680      41.79757459
H        3.13359976       0.41294190      -1.92380714      41.79757459
H        2.45148301      -1.18656838      -2.39303613      41.79757459
H        1.40337491       0.24658078      -2.38539243      41.79757459
H       -2.22585368       0.07621639      -1.67316055      41.79757459
H       -0.99857587       1.06748462      -0.89008719      41.79757459
C       -3.01944017       1.67692459      -0.44810033      41.79757459
C       -2.67351460       2.84714937       0.25125942      41.79757459
H       -1.63364267       3.01093698       0.54648250      41.79757459
C       -4.36103868       1.52103949      -0.83882630      41.79757459
H       -4.65464449       0.63672459      -1.40979207      41.79757459
C       -3.63400578       3.81006336       0.57310754      41.79757459
H       -3.34009004       4.71032476       1.11956942      41.79757459
C       -5.32509899       2.48127151      -0.51823419      41.79757459
H       -6.36238813       2.33531046      -0.83155811      41.79757459
C       -4.96773767       3.62695837       0.19746569      41.79757459
H       -5.72195625       4.37574768       0.45428988      41.79757459
H       -3.71716666      -1.89504910      -0.33373812      41.79757459
H       -3.51882958      -2.19158220       1.41006792      41.79757459
H       -4.23182392      -0.63717198       0.84335077      41.79757459
H       -1.66187394      -0.47395203       2.96632528      41.79757459
H       -0.79963541       0.84977359       2.14671159      41.79757459
H       -2.58790708       0.88944942       2.23543906      41.79757459
