54
Properties=species:S:1:pos:R:3:energy:R:1 pbc="F F F"
C        0.60657424      -3.55715847      -0.76869678      40.79027240
H       -0.21211416      -4.07025290      -1.27847731      40.79027240
H        1.44736707      -3.26326394      -1.40048885      40.79027240
C        0.76312560      -3.72060513       0.60708779      40.79027240
H        0.07672961      -4.33223343       1.19625294      40.79027240
H        1.74889493      -3.56792784       1.05436361      40.79027240
H        0.82818657      -1.61259019       1.29786491      40.79027240
Rh      -0.25328952      -1.68117821       0.11674523      40.79027240
C        2.40882945       0.73961717      -0.02998813      40.79027240
O        2.33119202      -1.10834992      -2.00129437      40.79027240
O        0.71238667       0.93655795      -2.00117779      40.79027240
C       -2.05307865       1.37338054       0.12606734      40.79027240
O       -2.55277872      -0.21418855       2.13910389      40.79027240
O       -0.28796804       1.10286117       2.02182889      40.79027240
P       -1.25842440       0.08990951       1.16474259      40.79027240
P        1.26330173      -0.29050407      -1.03001487      40.79027240
C       -1.94561017      -2.22652459      -0.61211854      40.79027240
O       -2.98798251      -2.62231946      -0.91842943      40.79027240
C        2.31041169       2.13421392       0.04628006      40.79027240
C        3.37141490       0.07566477       0.74707556      40.79027240
C        4.12303782       2.18939996       1.65503371      40.79027240
C        4.23007202       0.79616243       1.57828212      40.79027240
C        3.16126108       2.85485911       0.88996530      40.79027240
H        1.56625140       2.64744520      -0.56282020      40.79027240
H        3.07617545       3.94330359       0.94603145      40.79027240
H        4.79046202       2.75513887       2.31043315      40.79027240
H        4.98220968       0.27143010       2.17315292      40.79027240
H        3.44527507      -1.01408184       0.69966632      40.79027240
C        3.33591056      -0.41913226      -2.73668146      40.79027240
H        2.90690184       0.43538892      -3.28449798      40.79027240
H        4.13142109      -0.04635983      -2.06997490      40.79027240
H        3.76607537      -1.13402677      -3.45240760      40.79027240
C       -0.42396811       0.72927999      -2.83000422      40.79027240
H       -0.11600693       0.32802054      -3.81012368      40.79027240
H       -1.13233173       0.02664533      -2.36192751      40.79027240
H       -0.91883820       1.70086002      -2.96532607      40.79027240
C       -3.23603320       1.06103027      -0.56162840      40.79027240
C       -1.48655260       2.64608455      -0.03231611      40.79027240
C       -3.26181149       3.26782560      -1.56167066      40.79027240
C       -2.08877063       3.58710027      -0.87317616      40.79027240
C       -3.83585024       2.00272799      -1.40057313      40.79027240
H       -3.69700718       0.07925608      -0.44045848      40.79027240
H       -4.75868034       1.75003421      -1.92899275      40.79027240
H       -3.73184633       4.00488758      -2.21884513      40.79027240
H       -1.64243746       4.57884598      -0.98654801      40.79027240
H       -0.57863182       2.89956045       0.51360267      40.79027240
C       -2.57960391      -1.37444210       2.95924306      40.79027240
H       -1.98519719      -2.18589449       2.50337052      40.79027240
H       -2.17527747      -1.14517891       3.95993662      40.79027240
H       -3.62705779      -1.69341373       3.05833125      40.79027240
C        0.69375676       0.64990902       2.93989110      40.79027240
H        0.25551754       0.54844844       3.94689298      40.79027240
H        1.10827732      -0.32102755       2.62341404      40.79027240
H        1.50117958       1.39392400       2.95766354      40.79027240
