64
Properties=species:S:1:pos:R:3:energy:R:1 pbc="F F F"
C        0.30325168      -2.85713816       1.95994258      69.29182117
H        0.53652829      -3.74551368       1.36501539      69.29182117
H        1.08391356      -2.58190370       2.67441940      69.29182117
C       -1.05206728      -2.54175806       2.20646262      69.29182117
H       -1.85512841      -3.18440723       1.83973992      69.29182117
H       -1.29995358      -1.97864032       3.10979819      69.29182117
H       -0.50160420      -0.25974980       1.90785408      69.29182117
Rh      -0.22576173      -1.18258238       0.64350992      69.29182117
C        2.17531538       0.70387220       2.40696979      69.29182117
O        3.19879913      -0.64913702       0.41681802      69.29182117
O        1.74407339       1.41068196      -0.19659847      69.29182117
C       -0.84100991       0.91563916      -2.12653756      69.29182117
O       -3.00185347       0.06962267      -0.95705432      69.29182117
O       -1.55338454       1.79110026       0.37761408      69.29182117
P       -1.45042968       0.39206767      -0.47961417      69.29182117
P        1.73407650       0.04719570       0.75598109      69.29182117
C       -0.24463446      -2.39098048      -0.86464626      69.29182117
O       -0.34035325      -3.11949944      -1.75287330      69.29182117
H        1.38982522       1.41128147       2.70996332      69.29182117
H        2.18352342      -0.13517071       3.11761737      69.29182117
H        3.15896487       1.19514823       2.41277313      69.29182117
C        3.28866529      -1.65984499      -0.60416657      69.29182117
H        2.29233408      -1.77647781      -1.06393504      69.29182117
C        3.67372346      -2.97057962       0.06232252      69.29182117
H        2.91628385      -3.24431300       0.81078041      69.29182117
H        4.64702702      -2.87203217       0.56932205      69.29182117
H        3.74063325      -3.78235316      -0.67901856      69.29182117
C        4.26993179      -1.18801451      -1.66498077      69.29182117
H        3.92107272      -0.24708074      -2.11395788      69.29182117
H        5.26511478      -1.01323044      -1.22625971      69.29182117
H        4.36366653      -1.93656707      -2.46716905      69.29182117
C        2.87728357       2.29140878      -0.32001472      69.29182117
H        3.76905155       1.76738489       0.06496401      69.29182117
C        2.63847303       3.56821871       0.47743067      69.29182117
H        2.47434568       3.35622168       1.54290450      69.29182117
H        1.75290525       4.09562731       0.09220432      69.29182117
H        3.50730324       4.24050379       0.39090395      69.29182117
C        3.07590628       2.57500911      -1.80295813      69.29182117
H        3.20421314       1.63914108      -2.36479926      69.29182117
H        2.20117664       3.10411859      -2.21382284      69.29182117
H        3.96734381       3.20194483      -1.96245408      69.29182117
H        0.16997810       1.32504630      -2.00424790      69.29182117
H       -0.79908717       0.02532094      -2.77124524      69.29182117
H       -1.51051462       1.65479445      -2.59057331      69.29182117
C       -3.78980160      -0.90249968      -0.24516220      69.29182117
H       -3.09323239      -1.64928353       0.17634498      69.29182117
C       -4.69636345      -1.57067585      -1.26469421      69.29182117
H       -4.09305763      -2.04907680      -2.05158329      69.29182117
H       -5.36157322      -0.83236092      -1.74096322      69.29182117
H       -5.31640339      -2.34275675      -0.78264648      69.29182117
C       -4.52286339      -0.22230139       0.90065789      69.29182117
H       -3.79666185       0.21023113       1.60557055      69.29182117
H       -5.16941118       0.58572966       0.52107000      69.29182117
H       -5.14723253      -0.94469690       1.44938552      69.29182117
C       -2.24230695       2.97093391      -0.06787598      69.29182117
H       -2.89647579       2.70693851      -0.91753960      69.29182117
C       -1.22119594       4.01539087      -0.50052255      69.29182117
H       -0.59761375       3.64626718      -1.32696867      69.29182117
H       -0.55695319       4.25998116       0.34271529      69.29182117
H       -1.72451890       4.93856144      -0.82933331      69.29182117
C       -3.10542798       3.43679571       1.09572756      69.29182117
H       -3.82723761       2.65523148       1.37090731      69.29182117
H       -2.46969342       3.64058280       1.97218895      69.29182117
H       -3.65688634       4.35457945       0.83858562      69.29182117
