76
Properties=species:S:1:pos:R:3:energy:R:1 pbc="F F F"
C       -1.38989317       1.46793985       3.16338015      64.20649879
H       -1.40849888       0.90721667       4.09941244      64.20649879
H       -0.86978549       2.42729950       3.19765401      64.20649879
C       -2.25506496       1.17308640       2.13231230      64.20649879
H       -2.99854445       0.38329059       2.22299170      64.20649879
H       -2.44208717       1.89388359       1.33931887      64.20649879
H       -0.78908020      -0.11419608       0.17065294      64.20649879
Rh      -0.20225270       0.15090854       1.63001180      64.20649879
O       -0.36036980       2.09358358      -1.15379453      64.20649879
C        0.49384430       3.61239529       0.84287745      64.20649879
C        2.21985126       1.46639383      -0.53978693      64.20649879
O        0.07491149      -2.78355241       0.06697844      64.20649879
C       -0.42940703      -3.28371692       2.67115068      64.20649879
C       -2.50202346      -2.28505683       0.63978881      64.20649879
P       -0.78101122      -2.02494502       1.33533442      64.20649879
P        0.57706642       1.83896935       0.25326702      64.20649879
C        1.21709073      -0.19967382       2.85554290      64.20649879
O        2.06315112      -0.55632073       3.56162500      64.20649879
C       -1.42100954       1.34134471      -1.55790639      64.20649879
C       -2.71912503       1.69313228      -1.17194808      64.20649879
H       -2.86714721       2.58488536      -0.56228858      64.20649879
C       -1.22422850       0.22712070      -2.38058281      64.20649879
H       -0.21066128      -0.02194984      -2.69249678      64.20649879
C       -3.80398107       0.89586174      -1.53215218      64.20649879
H       -4.81275082       1.14333344      -1.19801033      64.20649879
C       -2.30620694      -0.56602180      -2.76338196      64.20649879
H       -2.16081548      -1.44477248      -3.39343143      64.20649879
C       -3.58796883      -0.24227601      -2.31285667      64.20649879
Cl      -4.93685246      -1.28380680      -2.71073461      64.20649879
H       -0.54032570       3.63426042       1.23526895      64.20649879
C        1.43963146       3.87357330       2.01922727      64.20649879
H        1.15570641       4.80841732       2.52948952      64.20649879
H        1.41391730       3.05869651       2.75904036      64.20649879
H        2.47882962       3.99075723       1.67870057      64.20649879
C        0.59818023       4.68463326      -0.24470001      64.20649879
H       -0.09007611       4.47939968      -1.07555032      64.20649879
H        0.34704947       5.67199326       0.17807758      64.20649879
H        1.61694860       4.74820042      -0.65399003      64.20649879
H        2.03690743       0.41834983      -0.82221204      64.20649879
C        2.56530428       2.24338984      -1.80994773      64.20649879
H        3.40852523       1.74524903      -2.31594467      64.20649879
H        1.71434641       2.27901626      -2.50408125      64.20649879
H        2.87249541       3.27635074      -1.58792734      64.20649879
C        3.36798930       1.46727371       0.47386292      64.20649879
H        3.11835623       0.90165055       1.38210142      64.20649879
H        4.25255919       0.99643826       0.01865408      64.20649879
H        3.65143490       2.48881459       0.76710874      64.20649879
C        1.26851451      -2.37831593      -0.44092092      64.20649879
C        1.35269105      -2.14185548      -1.81837642      64.20649879
H        0.45671958      -2.27559900      -2.42493582      64.20649879
C        2.41211867      -2.23388958       0.35495254      64.20649879
H        2.36194563      -2.43167448       1.42481387      64.20649879
C        2.55468297      -1.73320842      -2.39615440      64.20649879
H        2.61867905      -1.52589440      -3.46544147      64.20649879
C        3.61952233      -1.83555043      -0.21785155      64.20649879
H        4.51030207      -1.71574867       0.39985842      64.20649879
C        3.67954683      -1.56539845      -1.58594692      64.20649879
Cl       5.16933966      -0.96561217      -2.28466415      64.20649879
H        0.64461374      -3.09539914       2.84977865      64.20649879
C       -1.16813052      -2.95504022       3.97233009      64.20649879
H       -0.75801528      -3.55420780       4.80125475      64.20649879
H       -1.06269455      -1.89143968       4.23667383      64.20649879
H       -2.24039793      -3.18608952       3.89892244      64.20649879
C       -0.59123862      -4.74273157       2.24136925      64.20649879
H       -0.05292497      -4.94495106       1.30463970      64.20649879
H       -0.19284762      -5.41400146       3.02051330      64.20649879
H       -1.64945602      -5.00472450       2.09027910      64.20649879
H       -2.58094835      -1.37942088       0.02045726      64.20649879
C       -2.71570873      -3.49202037      -0.27612051      64.20649879
H       -3.66137409      -3.35706568      -0.82620859      64.20649879
H       -1.90492737      -3.59515333      -1.00824308      64.20649879
H       -2.78548598      -4.43093777       0.29315376      64.20649879
C       -3.58892417      -2.20410514       1.71950877      64.20649879
H       -3.35823178      -1.47137487       2.50474310      64.20649879
H       -4.54462862      -1.90901434       1.25704205      64.20649879
H       -3.74218607      -3.17830658       2.20808220      64.20649879
