68
Properties=species:S:1:pos:R:3:energy:R:1 pbc="F F F"
C        1.17003524      -3.16197181       1.04717112      51.90049920
H        0.77512020      -4.03027105       0.51080859      51.90049920
H        2.24770379      -3.01924682       0.93197101      51.90049920
C        0.50503314      -2.73080516       2.21592307      51.90049920
H       -0.37172705      -3.26617002       2.58759999      51.90049920
H        1.07578683      -2.21453071       2.99246240      51.90049920
H        0.93987697      -0.50152516       1.54011917      51.90049920
Rh       0.04268283      -1.34437025       0.54566157      51.90049920
C        2.37573433       1.17858553      -0.53203166      51.90049920
C        3.00553179      -1.45843434      -1.56262684      51.90049920
C        0.88417399       0.04822032      -2.76527476      51.90049920
C       -2.55342174       0.98002708      -0.42341763      51.90049920
C       -2.49287224       0.29480585       2.42925978      51.90049920
C       -0.48676935       2.09177089       1.24850690      51.90049920
P       -1.38119543       0.48770192       0.94231445      51.90049920
P        1.55182683      -0.39293036      -1.07993591      51.90049920
C       -1.32739460      -2.45380211      -0.22194830      51.90049920
O       -2.20812392      -3.15074015      -0.48750916      51.90049920
C        2.05216551       2.38849235      -1.17394865      51.90049920
H        1.37416673       2.38897777      -2.02566242      51.90049920
C        3.22686982       1.22682810       0.60349470      51.90049920
C        3.63174224       0.00633198       1.39141428      51.90049920
H        4.38697720      -0.59290886       0.85928303      51.90049920
H        2.76519251      -0.64348340       1.58055949      51.90049920
H        4.06206703       0.29628530       2.36077285      51.90049920
C        2.54898167       3.61692834      -0.73800057      51.90049920
H        2.27533197       4.53256655      -1.26799500      51.90049920
C        3.70699620       2.47454500       1.03163576      51.90049920
H        4.34749413       2.50770712       1.91735411      51.90049920
C        3.38469768       3.66223836       0.37654957      51.90049920
H        3.77933979       4.61450148       0.73962986      51.90049920
H        3.48981476      -1.77620912      -0.62994081      51.90049920
C        2.59651399      -2.68802190      -2.37225246      51.90049920
H        2.20608807      -2.41724515      -3.36527729      51.90049920
H        1.81520438      -3.25968981      -1.84820187      51.90049920
H        3.73493099      -0.83820939      -2.10853624      51.90049920
H        3.46089029      -3.35263991      -2.53104424      51.90049920
H        0.11438072       0.81718928      -2.60320425      51.90049920
C        1.86511385       0.46704072      -3.86260557      51.90049920
H        2.53157544      -0.35836127      -4.15197182      51.90049920
H        2.50245190       1.30795729      -3.55361080      51.90049920
H        0.32299569      -0.84861416      -3.07368708      51.90049920
H        1.31733537       0.77912426      -4.76711941      51.90049920
C       -2.37683606       0.31437185      -1.64709318      51.90049920
H       -1.61222994      -0.45729235      -1.70701897      51.90049920
C       -3.56619215       1.97213542      -0.33569667      51.90049920
C       -3.92958903       2.71728420       0.92724860      51.90049920
H       -3.05615926       3.03312016       1.50996864      51.90049920
H       -4.54645157       2.08959198       1.58991551      51.90049920
H       -4.51514912       3.61639786       0.68771917      51.90049920
C       -3.14772558       0.60391378      -2.77385187      51.90049920
H       -2.98025680       0.05836454      -3.70590663      51.90049920
C       -4.32586336       2.25599647      -1.48243546      51.90049920
H       -5.10215235       3.02356100      -1.41591072      51.90049920
C       -4.12895966       1.58917391      -2.69167686      51.90049920
H       -4.74563742       1.83776474      -3.55939579      51.90049920
H       -3.43202496      -0.13813519       2.04732227      51.90049920
C       -1.90242851      -0.60448146       3.51201916      51.90049920
H       -0.93837327      -0.22154841       3.87896276      51.90049920
H       -1.71405876      -1.60909319       3.11476207      51.90049920
H       -2.73449159       1.28657675       2.83697963      51.90049920
H       -2.59176636      -0.68223691       4.36812449      51.90049920
H       -1.20270956       2.92420697       1.19759679      51.90049920
C        0.30481198       2.14866781       2.55234694      51.90049920
H        0.99466598       1.29580283       2.63211989      51.90049920
H       -0.35837603       2.13621211       3.43201041      51.90049920
H        0.18796170       2.21429181       0.39271751      51.90049920
H        0.90478534       3.07102203       2.59327722      51.90049920
