80
Properties=species:S:1:pos:R:3:energy:R:1 pbc="F F F"
C        3.95444918       0.23358348      -0.23095222      84.55470883
H        4.48746395      -0.15034918      -1.10582829      84.55470883
H        4.15547705       1.29053700      -0.03063716      84.55470883
C        3.78922415      -0.64025366       0.90633428      84.55470883
H        4.10968781      -1.68350232       0.80172032      84.55470883
H        3.99279523      -0.25080734       1.91079688      84.55470883
H        2.33697391      -0.41273409       1.30967355      84.55470883
Rh       1.88441622      -0.43216351      -0.26997811      84.55470883
O       -0.26002854       1.54238951       1.41200805      84.55470883
C        1.94024336       3.06204057       0.47688782      84.55470883
C       -0.38398156       2.18204045      -1.29334021      84.55470883
O       -1.41671526      -1.40257728      -0.41584253      84.55470883
C        0.27102870      -3.56163812      -0.25231034      84.55470883
C       -0.46112624      -1.67862940       2.05443454      84.55470883
P        0.07651881      -1.77025318       0.27195421      84.55470883
P        0.77185714       1.63816988       0.09072396      84.55470883
C        2.18157387      -1.28841984      -1.92685592      84.55470883
O        2.48738241      -1.90949357      -2.85724139      84.55470883
C       -1.20934904       2.47410059       1.93062091      84.55470883
H       -1.09427273       2.43925810       3.02848029      84.55470883
H       -0.97352898       3.49945831       1.61755276      84.55470883
C       -2.65672731       2.15505648       1.57088029      84.55470883
H       -3.27654004       2.92198777       2.07284188      84.55470883
H       -2.81634927       2.29866338       0.48916835      84.55470883
C       -3.13569474       0.76064581       1.97520435      84.55470883
H       -2.82024550       0.55282468       3.01354837      84.55470883
H       -2.62953067       0.01685803       1.34352314      84.55470883
C       -4.65022278       0.59102881       1.85869431      84.55470883
H       -5.18700266       1.28264403       2.53010917      84.55470883
H       -4.99912310       0.79378462       0.83294445      84.55470883
H       -4.96035862      -0.43426785       2.11682153      84.55470883
H        2.69891810       2.53505611       1.08144116      84.55470883
C        2.62248468       3.51981592      -0.81861520      84.55470883
H        3.53990102       4.08585167      -0.58804673      84.55470883
H        2.90390015       2.66583920      -1.45250571      84.55470883
H        1.96617484       4.18064451      -1.40469193      84.55470883
C        1.45097780       4.24454498       1.31651986      84.55470883
H        1.07649577       3.92050624       2.29763985      84.55470883
H        2.29136324       4.93578815       1.50207567      84.55470883
H        0.66019899       4.82079411       0.81356245      84.55470883
H       -1.21044922       1.47730601      -1.10479724      84.55470883
C       -0.95047379       3.60609865      -1.27913415      84.55470883
H       -1.71855235       3.70574522      -2.06545091      84.55470883
H       -1.42482102       3.87865376      -0.32867551      84.55470883
H       -0.17115697       4.35210848      -1.49475861      84.55470883
C        0.19575380       1.85073030      -2.67415929      84.55470883
H        0.65358055       0.85244089      -2.68420053      84.55470883
H       -0.60119677       1.88419485      -3.43578529      84.55470883
H        0.96972102       2.57347775      -2.97299004      84.55470883
C       -1.57379055      -1.41826916      -1.83404613      84.55470883
H       -0.92205578      -0.65751910      -2.29570198      84.55470883
H       -1.26348102      -2.39739609      -2.23897696      84.55470883
C       -3.03490210      -1.17555034      -2.18849826      84.55470883
H       -3.15037107      -1.35825872      -3.27233219      84.55470883
H       -3.65025306      -1.93776333      -1.67751896      84.55470883
C       -3.55430555       0.22142275      -1.84590471      84.55470883
H       -2.97378039       0.97045237      -2.41281438      84.55470883
H       -3.35639286       0.41880515      -0.78261590      84.55470883
C       -5.04426908       0.40815890      -2.13098288      84.55470883
H       -5.27814865       0.24918647      -3.19742823      84.55470883
H       -5.65553188      -0.30296478      -1.55026054      84.55470883
H       -5.37926865       1.42441368      -1.86652827      84.55470883
H        0.54114264      -3.43906260      -1.31575692      84.55470883
C        1.47569633      -4.20575094       0.44035727      84.55470883
H        1.75455761      -5.14224005      -0.06953844      84.55470883
H        2.34672689      -3.53338623       0.42431006      84.55470883
H        1.24835682      -4.45413351       1.48877215      84.55470883
C       -0.98195761      -4.43981743      -0.18091199      84.55470883
H       -1.86982059      -3.93623114      -0.58916700      84.55470883
H       -0.82080847      -5.36612415      -0.75788122      84.55470883
H       -1.21454513      -4.73423719       0.85167825      84.55470883
H       -0.71002901      -0.60721368       2.09779501      84.55470883
C       -1.69801319      -2.49345636       2.44100928      84.55470883
H       -2.08876276      -2.13228893       3.40749025      84.55470883
H       -2.50141025      -2.40703821       1.69699824      84.55470883
H       -1.45548332      -3.55907559       2.57032347      84.55470883
C        0.69463253      -1.90701568       3.03248954      84.55470883
H        1.58054316      -1.32699645       2.74333000      84.55470883
H        0.39861396      -1.58185899       4.04299879      84.55470883
H        0.98623419      -2.96649694       3.09277558      84.55470883
