78
Properties=species:S:1:pos:R:3:energy:R:1 pbc="F F F"
C       -1.60718148      -3.16850386      -0.18136031      81.22148132
H       -1.18319684      -4.04426558       0.31514787      81.22148132
H       -2.53155181      -2.77131744       0.24089956      81.22148132
C       -1.24857471      -2.88764902      -1.49849732      81.22148132
H       -0.54479859      -3.52531217      -2.03912165      81.22148132
H       -1.91103769      -2.28164965      -2.12366601      81.22148132
H        0.06659924      -1.30894460      -1.63262372      81.22148132
Rh      -0.09139483      -1.47840067      -0.04418245      81.22148132
O       -2.35828942       0.77179544      -1.40641635      81.22148132
O       -3.29436749      -0.61856072       0.40280248      81.22148132
O       -1.82009608       1.43570143       0.91792615      81.22148132
O        2.41363164       0.26358723       1.43144910      81.22148132
O        2.97800290      -0.40440867      -0.86774852      81.22148132
O        1.32772274       1.51584410      -0.38193408      81.22148132
P        1.64376577      -0.04099246       0.02121461      81.22148132
P       -1.87700074       0.08079813      -0.01610684      81.22148132
C        0.75594613      -2.70073450       1.15953331      81.22148132
O        1.27577411      -3.56074160       1.73779676      81.22148132
C       -1.43995934       1.58717453      -2.17428091      81.22148132
H       -0.54752970       1.78085609      -1.56079282      81.22148132
C       -2.14331575       2.90082138      -2.47225398      81.22148132
H       -2.42843893       3.40165308      -1.53519637      81.22148132
H       -3.05501349       2.72436847      -3.06642536      81.22148132
H       -1.48260073       3.57204048      -3.04443647      81.22148132
C       -1.02682571       0.82704880      -3.42595571      81.22148132
H       -0.50791371      -0.10209934      -3.14913280      81.22148132
H       -1.90823870       0.56946312      -4.03502974      81.22148132
H       -0.34410126       1.43671376      -4.03962702      81.22148132
C       -4.55877286       0.08365753       0.38352260      81.22148132
H       -4.35349390       1.16615045       0.35573992      81.22148132
C       -5.28054709      -0.26274299       1.67631295      81.22148132
H       -4.69167037       0.05716421       2.54826042      81.22148132
H       -5.43521481      -1.35145606       1.74725921      81.22148132
H       -6.26371529       0.23213415       1.71654835      81.22148132
C       -5.32739373      -0.32432990      -0.86427774      81.22148132
H       -4.75168625      -0.06481557      -1.76324121      81.22148132
H       -5.50726995      -1.41172282      -0.86094918      81.22148132
H       -6.30168150       0.18860464      -0.90521817      81.22148132
C       -1.05763997       1.50783722       2.13641797      81.22148132
H       -0.04223414       1.13213948       1.93323835      81.22148132
C       -1.69216217       0.65299181       3.22519001      81.22148132
H       -1.71984885      -0.40578122       2.92753162      81.22148132
H       -2.72066373       0.99016039       3.43121188      81.22148132
H       -1.10815528       0.73154548       4.15616081      81.22148132
C       -0.98883096       2.98258891       2.49473647      81.22148132
H       -0.58421997       3.55734847       1.64999812      81.22148132
H       -1.99417838       3.37030633       2.72466304      81.22148132
H       -0.34100887       3.14093856       3.37082701      81.22148132
C        3.12069879      -0.75111045       2.17664588      81.22148132
H        3.07930950      -1.69604866       1.61334469      81.22148132
C        2.41775100      -0.92830903       3.51367069      81.22148132
H        1.35323941      -1.15215024       3.35486075      81.22148132
H        2.49600032      -0.00643367       4.11275761      81.22148132
H        2.86599326      -1.75789559       4.08173130      81.22148132
C        4.57556421      -0.32395525       2.29447511      81.22148132
H        5.01429178      -0.19858833       1.29340494      81.22148132
H        4.65818261       0.63098665       2.83797151      81.22148132
H        5.15479143      -1.08612554       2.83981297      81.22148132
C        2.92597318      -1.09268360      -2.13178437      81.22148132
H        1.99014903      -1.67775194      -2.15747152      81.22148132
C        4.11322287      -2.03697384      -2.16872863      81.22148132
H        4.05675598      -2.74817457      -1.33108264      81.22148132
H        5.05855611      -1.47617634      -2.08912575      81.22148132
H        4.12233250      -2.60710385      -3.11094701      81.22148132
C        2.91114510      -0.07032633      -3.25985118      81.22148132
H        2.01932543       0.56912424      -3.18531037      81.22148132
H        3.80619906       0.57117396      -3.21544619      81.22148132
H        2.88857427      -0.57277161      -4.23954267      81.22148132
C        2.35861094       2.53425947      -0.43549723      81.22148132
H        3.32813902       2.02791470      -0.56728162      81.22148132
C        2.37819535       3.33922101       0.85747826      81.22148132
H        2.52634777       2.67913634       1.72129855      81.22148132
H        1.43475963       3.88958254       0.98716972      81.22148132
H        3.20010365       4.07298682       0.82829365      81.22148132
C        2.07260504       3.40225223      -1.65215006      81.22148132
H        2.06783655       2.80373733      -2.57408598      81.22148132
H        1.09183714       3.89422224      -1.55088083      81.22148132
H        2.84059167       4.18593515      -1.74949293      81.22148132
