66
Properties=species:S:1:pos:R:3:energy:R:1 pbc="F F F"
C        1.60865139      -3.01375681      -0.71877709      71.52339172
H        1.30624116      -3.62742122      -1.56986420      71.52339172
H        2.57780206      -2.51972592      -0.79290466      71.52339172
C        1.02580927      -3.22461313       0.52767100      71.52339172
H        0.26050528      -3.98978104       0.67568685      71.52339172
H        1.55180060      -2.89776146       1.42800673      71.52339172
H       -0.36001763      -1.60284497       1.11628296      71.52339172
Rh       0.04302305      -1.38685003      -0.42538891      71.52339172
O        1.53780380       1.09567625       1.47679615      71.52339172
O        3.15123776      -0.63988083       0.49516238      71.52339172
O        2.28634388       1.27087172      -0.85423455      71.52339172
O       -2.25714364       0.85113905      -1.57642095      71.52339172
O       -3.11674298      -0.46639734       0.31114678      71.52339172
O       -1.37039267       1.39714529       0.64358969      71.52339172
P       -1.67314525       0.07611146      -0.25101175      71.52339172
P        1.73961207       0.09583226       0.16589191      71.52339172
C       -0.64005350      -2.10924996      -2.07013118      71.52339172
O       -1.08521079      -2.65969498      -2.98687620      71.52339172
C        0.89969866       0.63035668       2.65222003      71.52339172
H        0.04845104      -0.02638678       2.41522689      71.52339172
H        1.60820825       0.07240593       3.29078836      71.52339172
H        0.53349099       1.50678388       3.20535853      71.52339172
C        4.35255188       0.06517223       0.88580010      71.52339172
H        4.07358090       1.09518309       1.15970593      71.52339172
C        5.30144742       0.09281754      -0.30294064      71.52339172
H        4.82488385       0.60714815      -1.14914434      71.52339172
H        5.55659261      -0.93392204      -0.61184162      71.52339172
H        6.23343834       0.62101258      -0.04546710      71.52339172
C        4.92043656      -0.64755911       2.10231853      71.52339172
H        4.19701613      -0.63711325       2.93183856      71.52339172
H        5.15410389      -1.69634034       1.85879995      71.52339172
H        5.84520513      -0.15432405       2.44190863      71.52339172
C        1.33936742       2.18985958      -1.44083401      71.52339172
H        0.37491520       2.08346679      -0.92326838      71.52339172
C        1.15634256       1.82873827      -2.90573807      71.52339172
H        0.77780599       0.79891619      -2.99001566      71.52339172
H        2.11645739       1.89690487      -3.44277040      71.52339172
H        0.43301682       2.50681596      -3.38576476      71.52339172
C        1.85896710       3.59863177      -1.20661891      71.52339172
H        1.95451762       3.78930426      -0.12697111      71.52339172
H        2.84928880       3.72971659      -1.67204008      71.52339172
H        1.16928214       4.34218836      -1.63705249      71.52339172
C       -3.01979758       0.21433326      -2.59239707      71.52339172
H       -2.38454218      -0.40441436      -3.24339666      71.52339172
H       -3.81514256      -0.40871647      -2.15338716      71.52339172
H       -3.47793751       1.01359894      -3.19312842      71.52339172
C       -3.23578066      -1.52525769       1.28174975      71.52339172
H       -2.32403739      -2.14368998       1.21556015      71.52339172
C       -4.44137696      -2.35981788       0.89103983      71.52339172
H       -4.30656104      -2.77010993      -0.12101231      71.52339172
H       -5.36021417      -1.75176187       0.90441674      71.52339172
H       -4.56734637      -3.19968435       1.59241903      71.52339172
C       -3.32927662      -0.91687387       2.67401013      71.52339172
H       -2.42410151      -0.33338736       2.90067787      71.52339172
H       -4.20166521      -0.24765564       2.74891610      71.52339172
H       -3.42634721      -1.70533183       3.43680085      71.52339172
C       -2.31730081       2.48180126       0.80356622      71.52339172
H       -3.31906432       2.10513620       0.54115786      71.52339172
C       -1.94354746       3.62600830      -0.12920741      71.52339172
H       -1.95069242       3.28808593      -1.17378690      71.52339172
H       -0.94169739       4.01192828       0.11491627      71.52339172
H       -2.66642357       4.45110640      -0.02290089      71.52339172
C       -2.29733453       2.89161017       2.26751756      71.52339172
H       -2.56518066       2.04667122       2.91756389      71.52339172
H       -1.29350118       3.24657603       2.54969491      71.52339172
H       -3.01492542       3.70854150       2.44388648      71.52339172
