60
Properties=species:S:1:pos:R:3:energy:R:1 pbc="F F F"
C       -0.43465707       3.50908132      -0.54227611      45.98803329
H        0.35908568       4.03346132      -1.07950159      45.98803329
H       -1.38325193       3.42987839      -1.07509610      45.98803329
C       -0.43943430       3.52345380       0.87734293      45.98803329
H        0.36726485       4.03606387       1.40730869      45.98803329
H       -1.40383622       3.54929081       1.39036014      45.98803329
H       -0.36886628       1.92016556       1.48348134      45.98803329
Rh       0.31208698       1.52451267       0.04044764      45.98803329
C       -2.61909949      -0.76171619      -0.15335120      45.98803329
O       -2.75407580       1.66719978      -1.32137464      45.98803329
O       -1.35547676      -0.20215615      -2.38268853      45.98803329
C        2.64897467      -1.07943173       0.03202628      45.98803329
O        2.00867681      -0.15934017       2.45044698      45.98803329
O        0.34255132      -1.65534419       1.21292084      45.98803329
P        1.28186812      -0.32007354       0.97119130      45.98803329
P       -1.57217206       0.56145801      -0.90054882      45.98803329
C        1.96717377       1.96148545      -0.78875246      45.98803329
O        2.98034237       2.31741014      -1.21479124      45.98803329
C       -2.59933916      -2.06525762      -0.67108399      45.98803329
H       -2.00489324      -2.26841884      -1.56121814      45.98803329
C       -3.39719143      -0.47347925       0.99480032      45.98803329
C       -3.44822234       0.90387523       1.60568145      45.98803329
H       -3.91243751       1.63327494       0.92490593      45.98803329
H       -2.43249165       1.27956789       1.81040299      45.98803329
H       -4.01477804       0.89486250       2.54771316      45.98803329
C       -3.33839296      -3.08740180      -0.07339382      45.98803329
H       -3.31263796      -4.09634653      -0.49233274      45.98803329
C       -4.13465773      -1.51442369       1.57693394      45.98803329
H       -4.73918791      -1.30016043       2.46269564      45.98803329
C       -4.10880593      -2.80994581       1.05689738      45.98803329
H       -4.69197977      -3.60087910       1.53561895      45.98803329
C       -3.92595937       1.29373391      -2.03664273      45.98803329
H       -3.67612963       0.66888230      -2.90848627      45.98803329
H       -4.62694056       0.73613276      -1.39258501      45.98803329
H       -4.40853818       2.22133854      -2.37779048      45.98803329
C       -0.41322544       0.34693992      -3.29630888      45.98803329
H       -0.74096113       1.33639198      -3.65690689      45.98803329
H        0.57658011       0.45795509      -2.82409229      45.98803329
H       -0.34620116      -0.34768020      -4.14521771      45.98803329
C        3.94960441      -0.68020813       0.37558690      45.98803329
H        4.09197166      -0.02577749       1.23638273      45.98803329
C        2.44430432      -1.94085703      -1.07123349      45.98803329
C        1.08872964      -2.45370816      -1.48182438      45.98803329
H        0.33884446      -1.65520032      -1.52589447      45.98803329
H        0.71344328      -3.19061198      -0.75632144      45.98803329
H        1.13972815      -2.92909312      -2.47250334      45.98803329
C        5.05468989      -1.10932286      -0.35824475      45.98803329
H        6.05904074      -0.78756022      -0.07321626      45.98803329
C        3.57142241      -2.35000510      -1.80032470      45.98803329
H        3.42470912      -3.00935218      -2.66041393      45.98803329
C        4.86183279      -1.94480819      -1.45814703      45.98803329
H        5.71408465      -2.28390449      -2.05275036      45.98803329
C        1.74700985       0.91415649       3.34210647      45.98803329
H        1.61037923       1.86053952       2.79484743      45.98803329
H        0.83992424       0.71710815       3.93851336      45.98803329
H        2.61031922       0.99618513       4.01852481      45.98803329
C       -0.55500867      -1.72540122       2.30612359      45.98803329
H       -0.01334473      -1.96496857       3.23642570      45.98803329
H       -1.10714691      -0.78111585       2.44235528      45.98803329
H       -1.27743372      -2.52215805       2.08371138      45.98803329
