92
Properties=species:S:1:pos:R:3:energy:R:1 pbc="F F F"
C       -1.60830824      -3.72551795       0.06247280      50.73716736
H       -1.53134194      -4.52594666      -0.67813188      50.73716736
H       -1.20082976      -3.99934901       1.04158781      50.73716736
C       -2.73831459      -2.83039136       0.04446158      50.73716736
H       -3.42453969      -2.91205991      -0.80634503      50.73716736
H       -3.26042737      -2.59577796       0.97581898      50.73716736
H       -2.08493409      -1.43539853       0.30416433      50.73716736
Rh      -0.88117760      -1.85044735      -0.73810094      50.73716736
C        1.93591735      -3.53052311       0.59266834      50.73716736
O        2.16345764      -0.88205322      -0.05445024      50.73716736
O        1.01347771      -1.67104085       2.17981433      50.73716736
C        0.42944825       0.79210443      -2.70573916      50.73716736
O       -1.95805441       1.29322328      -1.64641968      50.73716736
O        0.03784337       1.20269054      -0.01706194      50.73716736
P       -0.62221739       0.34390930      -1.27117621      50.73716736
P        0.99386480      -1.95129635       0.51371559      50.73716736
C       -1.00412136      -2.47369477      -2.55488202      50.73716736
O       -1.22740266      -2.86194639      -3.61830148      50.73716736
H        2.80949686      -3.39637006       1.25023317      50.73716736
H        1.26734937      -4.25441272       1.08748346      50.73716736
C        2.34920214      -4.02850080      -0.79441683      50.73716736
H        3.01023259      -3.28118238      -1.26488517      50.73716736
H        1.45411970      -4.08512276      -1.43625529      50.73716736
C        3.05246866      -5.38382887      -0.74985073      50.73716736
H        3.96856403      -5.33889956      -0.13783774      50.73716736
H        2.39830793      -6.15628210      -0.31134411      50.73716736
H        3.33762758      -5.72067880      -1.75928150      50.73716736
C        3.49263936      -0.80978355       0.26588072      50.73716736
C        4.38849305      -0.58894667      -0.78734609      50.73716736
H        3.99762663      -0.53218376      -1.80538652      50.73716736
C        3.96616459      -0.88039159       1.58019364      50.73716736
H        3.26610856      -1.04451874       2.39814616      50.73716736
C        5.74870328      -0.44374377      -0.52270994      50.73716736
H        6.43721287      -0.26782544      -1.35427068      50.73716736
C        5.33444859      -0.73944820       1.82340926      50.73716736
H        5.69407552      -0.79615174       2.85467546      50.73716736
C        6.25082465      -0.51965060       0.78677456      50.73716736
C        7.72825080      -0.39340341       1.05894378      50.73716736
H        7.92318776      -0.14154256       2.11229872      50.73716736
H        8.19011961       0.38472977       0.43090481      50.73716736
H        8.25595659      -1.33926544       0.84352133      50.73716736
C        0.15073060      -0.74183540       2.72093919      50.73716736
C       -1.10668741      -1.14327991       3.17701962      50.73716736
H       -1.38552486      -2.19598278       3.10382482      50.73716736
C        0.53439575       0.59673381       2.82054553      50.73716736
H        1.51278955       0.90281914       2.44880992      50.73716736
C       -1.98257672      -0.19886893       3.71700724      50.73716736
H       -2.96442771      -0.52278052       4.07347522      50.73716736
C       -0.35214992       1.53229524       3.35247136      50.73716736
H       -0.04984500       2.58185100       3.40311184      50.73716736
C       -1.62889394       1.15643117       3.80019713      50.73716736
C       -2.60416152       2.18680357       4.30945831      50.73716736
H       -3.35073535       1.74018112       4.98392949      50.73716736
H       -3.15493540       2.65161273       3.47225364      50.73716736
H       -2.09293350       2.99695904       4.85198588      50.73716736
H        1.45644887       0.62557442      -2.33794612      50.73716736
H        0.24194538       0.00251981      -3.45252265      50.73716736
C        0.26260865       2.17931378      -3.33439516      50.73716736
H        0.44595603       2.95984518      -2.58263315      50.73716736
H       -0.78463811       2.30243440      -3.65067138      50.73716736
C        1.20060841       2.38918339      -4.52208172      50.73716736
H        2.25771490       2.31563478      -4.21550545      50.73716736
H        1.03033533       1.63795268      -5.31159104      50.73716736
H        1.05262723       3.38524100      -4.96909270      50.73716736
C       -3.14283188       1.15233578      -0.96062267      50.73716736
C       -3.18003907       1.01610208       0.43076653      50.73716736
H       -2.26094839       1.05254516       1.01499924      50.73716736
C       -4.32701225       1.12090521      -1.70226297      50.73716736
H       -4.27140190       1.23431778      -2.78679040      50.73716736
C       -4.40831896       0.80855880       1.06374142      50.73716736
H       -4.42120765       0.66888721       2.14763228      50.73716736
C       -5.54489194       0.92826980      -1.05204630      50.73716736
H       -6.46622276       0.89594269      -1.64090457      50.73716736
C       -5.60646994       0.74953228       0.34073800      50.73716736
C       -6.92150643       0.48689391       1.02859334      50.73716736
H       -6.80989628       0.49122136       2.12297559      50.73716736
H       -7.33370347      -0.49508522       0.73894585      50.73716736
H       -7.67561522       1.24472884       0.76072748      50.73716736
C        0.53663026       2.48435111      -0.05014823      50.73716736
C       -0.32585096       3.58314424       0.00826645      50.73716736
H       -1.40256862       3.41799991       0.05385661      50.73716736
C        1.91935447       2.67715431      -0.10888942      50.73716736
H        2.57792154       1.80880283      -0.14792801      50.73716736
C        0.20422544       4.87421866      -0.01202143      50.73716736
H       -0.47634122       5.72980158       0.02295126      50.73716736
C        2.43136832       3.97676042      -0.12874230      50.73716736
H        3.51439677       4.12107897      -0.18149557      50.73716736
C        1.58868477       5.09851754      -0.08315557      50.73716736
C        2.14955917       6.49977382      -0.07894708      50.73716736
H        1.47832099       7.20566605      -0.59260011      50.73716736
H        3.13308026       6.54516786      -0.57121412      50.73716736
H        2.28344204       6.87338318       0.95193924      50.73716736
