50
Properties=species:S:1:pos:R:3:energy:R:1 pbc="F F F"
C       -3.25316406       0.04292725      -0.54517480      58.05371094
H       -4.03140265      -0.30744623       0.13683705      58.05371094
H       -3.29177965       1.11731560      -0.75130084      58.05371094
C       -2.80155639      -0.81669906      -1.60000208      58.05371094
H       -3.13752598      -1.85781507      -1.60295606      58.05371094
H       -2.68168320      -0.41176581      -2.61008251      58.05371094
H       -1.19942287      -0.58885232      -1.56289573      58.05371094
Rh      -1.30867193      -0.66121048       0.07710238      58.05371094
O        0.10238857       2.65506130       0.26330845      58.05371094
C       -2.08003436       2.33087541       1.71748600      58.05371094
C        0.38609270       1.21925106       2.51332485      58.05371094
O        2.01392017      -0.46865322       0.05159617      58.05371094
C        1.22032016      -2.72394422       1.39637304      58.05371094
C        1.22237152      -2.61305722      -1.46545921      58.05371094
P        0.79427224      -1.58650189       0.00912299      58.05371094
P       -0.66454375       1.37595830       1.00363713      58.05371094
C       -2.01881145      -1.91161566       1.34938188      58.05371094
O       -2.46902272      -2.74300002       2.01559562      58.05371094
C        0.75667868       2.49503305      -1.00287126      58.05371094
H        1.22533857       1.49766863      -1.03591844      58.05371094
C        1.83705404       3.56436120      -1.06351953      58.05371094
H        2.53824490       3.45016371      -0.22234100      58.05371094
H        1.38620769       4.56814211      -0.99677190      58.05371094
H        2.40353968       3.49878540      -2.00617170      58.05371094
C       -0.25921569       2.60810155      -2.13211099      58.05371094
H       -1.00182229       1.80082051      -2.04854498      58.05371094
H       -0.78174127       3.57743237      -2.08329904      58.05371094
H        0.23305544       2.52278506      -3.11443203      58.05371094
H       -2.61181189       1.69237655       2.43894820      58.05371094
H       -1.71962728       3.24448797       2.21488875      58.05371094
H       -2.77946291       2.60920781       0.91716380      58.05371094
H       -0.12269206       0.56111406       3.23428484      58.05371094
H        1.34153477       0.76190230       2.22368156      58.05371094
H        0.57199291       2.20467986       2.96821587      58.05371094
C        3.41569660      -0.78966474       0.00733989      58.05371094
H        3.54134477      -1.88710601       0.01762051      58.05371094
C        4.07630941      -0.21469819       1.25208678      58.05371094
H        3.63144821      -0.64254166       2.16340703      58.05371094
H        3.94392440       0.87819897       1.28432819      58.05371094
H        5.15551616      -0.43606844       1.25724956      58.05371094
C        4.00872954      -0.24446403      -1.28473643      58.05371094
H        3.50288850      -0.67561616      -2.16144594      58.05371094
H        3.89544196       0.85041884      -1.32491550      58.05371094
H        5.08167857      -0.48659188      -1.34991012      58.05371094
H        2.23791823      -3.13784977       1.32873434      58.05371094
H        1.10446427      -2.17172674       2.33998973      58.05371094
H        0.49269188      -3.54918819       1.39288082      58.05371094
H        1.11853284      -1.99184598      -2.36645211      58.05371094
H        2.23916968      -3.03288624      -1.41801881      58.05371094
H        0.49619596      -3.43723479      -1.52955390      58.05371094
