56
Properties=species:S:1:pos:R:3:energy:R:1 pbc="F F F"
C        3.83142955       0.36160615      -1.18060263      63.78696442
H        4.28349560      -0.54263324      -1.59263915      63.78696442
H        3.52124854       1.09760780      -1.92624978      63.78696442
C        4.10721937       0.73847207       0.13429884      63.78696442
H        4.76560979       0.14084696       0.76782092      63.78696442
H        3.99242841       1.78111697       0.44183673      63.78696442
H        2.33485264       0.42738080       1.55716070      63.78696442
Rh       2.06854459      -0.23476013       0.09773597      63.78696442
O       -0.39185366       2.10850491       0.36897231      63.78696442
C        1.73442353       3.21450813      -0.94054986      63.78696442
C       -0.03530260       1.40554877      -2.26835087      63.78696442
O       -1.07468110      -1.14301424       0.20530220      63.78696442
C        0.40106538      -2.78857498       1.84293517      63.78696442
C       -0.34270111      -0.16201309       2.69538480      63.78696442
P        0.26900511      -1.05116928       1.21703464      63.78696442
P        0.84216716       1.62439997      -0.65414491      63.78696442
C        2.42900507      -1.98696164      -0.56488050      63.78696442
O        2.65898117      -3.08863976      -0.84573435      63.78696442
C       -1.32313742       3.14577068       0.06967614      63.78696442
H       -1.32594579       3.83381200       0.93378247      63.78696442
H       -0.99997503       3.73220079      -0.80683092      63.78696442
C       -2.72679862       2.60051985      -0.16255713      63.78696442
H       -3.38469064       3.45710460      -0.40048151      63.78696442
H       -2.72163129       1.95399825      -1.05761067      63.78696442
C       -3.29141656       1.82417775       1.02699994      63.78696442
H       -3.24008288       2.45687172       1.93197739      63.78696442
H       -2.62952983       0.96638029       1.21651649      63.78696442
C       -4.72720954       1.34680342       0.81277877      63.78696442
H       -5.41460194       2.19734422       0.66721781      63.78696442
H       -4.80792295       0.70382172      -0.07858927      63.78696442
H       -5.09464577       0.76747255       1.67524216      63.78696442
H        2.54940808       3.04761492      -1.66073568      63.78696442
H        1.08383619       4.01148013      -1.33213630      63.78696442
H        2.17361754       3.54459936       0.01244285      63.78696442
H       -0.59416600       2.29366038      -2.60482243      63.78696442
H        0.71633724       1.14261901      -3.02808196      63.78696442
H       -0.71800718       0.55114018      -2.15276156      63.78696442
C       -2.31081388      -1.75465987       0.56104588      63.78696442
H       -2.14356490      -2.77567364       0.94971791      63.78696442
H       -2.81402379      -1.17588805       1.35658423      63.78696442
C       -3.19291380      -1.81697512      -0.67583608      63.78696442
H       -4.19302341      -2.17403313      -0.36919061      63.78696442
H       -3.33081251      -0.79066093      -1.05836867      63.78696442
C       -2.63138954      -2.71158093      -1.78141460      63.78696442
H       -2.51277957      -3.73833783      -1.38864204      63.78696442
H       -1.61574110      -2.36423538      -2.03397626      63.78696442
C       -3.50389109      -2.73730244      -3.03494473      63.78696442
H       -4.51828600      -3.11142895      -2.81363387      63.78696442
H       -3.61410784      -1.72737630      -3.46535055      63.78696442
H       -3.07324672      -3.38518340      -3.81485826      63.78696442
H       -0.46985606      -3.08753190       2.44584820      63.78696442
H        0.51617225      -3.47073769       0.98849836      63.78696442
H        1.30865744      -2.85317147       2.45969087      63.78696442
H       -0.49392277       0.88712723       2.41160057      63.78696442
H       -1.27551017      -0.59894606       3.08303667      63.78696442
H        0.44039787      -0.21785589       3.46533661      63.78696442
