60
Properties=species:S:1:pos:R:3:energy:R:1 pbc="F F F"
C       -1.03036911      -3.00367556      -0.76588761      66.55377960
H       -1.25549869      -3.66368426       0.07398834      66.55377960
H       -1.89495664      -2.71874512      -1.36905181      66.55377960
C        0.23742976      -3.07616206      -1.36549519      66.55377960
H        1.01807022      -3.73137626      -0.97875322      66.55377960
H        0.31969168      -2.84722063      -2.43114622      66.55377960
H        0.60626832      -1.05114169      -1.50292218      66.55377960
Rh       0.03034442      -1.23947006      -0.01222873      66.55377960
C       -1.38751306       1.33083542      -2.17778128      66.55377960
C       -3.34267053      -0.29243736      -0.90654009      66.55377960
C       -1.97624994       1.75190083       0.61579058      66.55377960
C        1.72594109       0.82147724       2.35372644      66.55377960
C        3.46351992      -0.55410935       0.53240510      66.55377960
C        1.94302995       1.76452900      -0.36793511      66.55377960
P        1.77380113       0.19476505       0.60733502      66.55377960
P       -1.63016001       0.37516874      -0.60995150      66.55377960
C       -0.16589831      -1.86063417       1.78955755      66.55377960
O       -0.18073777      -2.28018284       2.86846843      66.55377960
H       -0.47429998       1.93869294      -2.10253537      66.55377960
H       -1.24563191       0.61479079      -3.00104964      66.55377960
H       -2.23847795       1.98781997      -2.41840394      66.55377960
H       -4.00318558       0.50838547      -1.28161483      66.55377960
H       -3.24344877      -1.02255073      -1.72762049      66.55377960
C       -3.94482524      -0.96659436       0.32759484      66.55377960
H       -4.15959384      -0.20037599       1.09349194      66.55377960
H       -3.18764813      -1.63374114       0.77233063      66.55377960
C       -5.21822559      -1.75396291       0.02198125      66.55377960
H       -5.99898409      -1.10926023      -0.41581227      66.55377960
H       -5.01626118      -2.56452093      -0.69820550      66.55377960
H       -5.63453664      -2.21315731       0.93294518      66.55377960
H       -2.12295193       1.25085070       1.58725548      66.55377960
H       -1.02876743       2.31028478       0.71515549      66.55377960
C       -3.12869643       2.72258473       0.33447611      66.55377960
H       -4.07600050       2.16232792       0.26120807      66.55377960
H       -2.98553461       3.20550762      -0.64703312      66.55377960
C       -3.27265958       3.80262195       1.40977204      66.55377960
H       -3.45692326       3.35684500       2.40155154      66.55377960
H       -2.35930989       4.41592948       1.48823793      66.55377960
H       -4.11245476       4.48168529       1.18868103      66.55377960
H        1.70322641      -0.03688684       3.04055414      66.55377960
H        2.58939822       1.45674797       2.60917818      66.55377960
H        0.80000202       1.39669708       2.50690393      66.55377960
H        4.20462406       0.12576975       0.98676603      66.55377960
H        3.40153248      -1.44878719       1.17434400      66.55377960
C        3.88614887      -0.95499402      -0.88111503      66.55377960
H        3.97066231      -0.05293630      -1.51331296      66.55377960
H        3.08693030      -1.56802052      -1.33032848      66.55377960
C        5.21098166      -1.71543672      -0.89937722      66.55377960
H        6.02475858      -1.11279379      -0.46212425      66.55377960
H        5.13755307      -2.64603485      -0.31210015      66.55377960
H        5.50759899      -1.98799064      -1.92465690      66.55377960
H        1.94392054       1.45657130      -1.42632398      66.55377960
H        1.00351180       2.32283627      -0.21849399      66.55377960
C        3.14343547       2.66657560      -0.06698769      66.55377960
H        4.07901159       2.11530042      -0.26040240      66.55377960
H        3.16014590       2.92441757       1.00526988      66.55377960
C        3.13889254       3.95574229      -0.89097831      66.55377960
H        3.16589144       3.74068688      -1.97221124      66.55377960
H        2.23145207       4.55160251      -0.69546905      66.55377960
H        4.01019308       4.58762572      -0.65394581      66.55377960
