62
Properties=species:S:1:pos:R:3:energy:R:1 pbc="F F F"
C        1.44372568      -2.94141912       0.28392480      69.14751434
H        1.44685218      -3.63675613      -0.55943290      69.14751434
H        2.44229725      -2.62773071       0.59458528      69.14751434
C        0.42092213      -3.05267557       1.27500681      69.14751434
H       -0.35472102      -3.81202471       1.14621854      69.14751434
H        0.69529618      -2.87354667       2.31688173      69.14751434
H       -0.41743483      -1.63609640       1.41161054      69.14751434
Rh       0.07938002      -1.29755322      -0.12524759      69.14751434
O        1.39210936       1.38250773       1.67781933      69.14751434
C        3.41269383      -0.14678621       0.66930801      69.14751434
C        1.83791011       1.67324966      -0.90107149      69.14751434
O       -1.32425014       1.26144847      -1.58967616      69.14751434
C       -3.31042891      -0.46657836      -0.72913733      69.14751434
C       -1.92687793       1.35632520       1.08733467      69.14751434
P       -1.62981505       0.20713510      -0.32911001      69.14751434
P        1.64445989       0.33828567       0.36557779      69.14751434
C       -0.36716084      -2.07445127      -1.80511449      69.14751434
O       -0.69882478      -2.57386460      -2.79582558      69.14751434
C        1.08680394       0.82869413       2.93952980      69.14751434
H        0.32338643       0.03337303       2.85825049      69.14751434
H        1.98395085       0.40207364       3.42618129      69.14751434
H        0.69822881       1.63653951       3.57856814      69.14751434
H        3.95378992       0.72282024       1.07634389      69.14751434
H        3.39813838      -0.90970387       1.46644989      69.14751434
C        4.10641160      -0.70273319      -0.57968623      69.14751434
H        4.30685461       0.12464748      -1.28099140      69.14751434
H        3.41564521      -1.38205304      -1.10814049      69.14751434
C        5.40892708      -1.43680517      -0.26342566      69.14751434
H        6.12791439      -0.77722262       0.25055012      69.14751434
H        5.22499223      -2.30320922       0.39399298      69.14751434
H        5.89174844      -1.81089662      -1.18064176      69.14751434
H        2.11099342       1.14957206      -1.83299964      69.14751434
H        0.82130869       2.05610877      -1.07643457      69.14751434
C        2.81181554       2.80830798      -0.58259013      69.14751434
H        3.83481696       2.40949859      -0.47274979      69.14751434
H        2.54427929       3.24199715       0.39402976      69.14751434
C        2.81002929       3.89394920      -1.65940805      69.14751434
H        3.10097963       3.48526663      -2.64187698      69.14751434
H        1.80691151       4.33853038      -1.77289444      69.14751434
H        3.51117387       4.70815009      -1.41349742      69.14751434
C       -2.28098739       1.81124453      -2.47202461      69.14751434
H       -2.73577038       1.03835740      -3.11494714      69.14751434
H       -3.08683558       2.34988529      -1.94536359      69.14751434
H       -1.74810074       2.52731583      -3.11540913      69.14751434
H       -4.01067687       0.35424047      -0.95378203      69.14751434
H       -3.18464242      -1.05357228      -1.65408979      69.14751434
C       -3.86969678      -1.35395613       0.38612184      69.14751434
H       -4.09336156      -0.73421638       1.27211695      69.14751434
H       -3.08840090      -2.06797678       0.69691899      69.14751434
C       -5.12649316      -2.11045439      -0.04334541      69.14751434
H       -5.92934730      -1.42030970      -0.35300690      69.14751434
H       -4.91221335      -2.77499813      -0.89674111      69.14751434
H       -5.51773442      -2.73431422       0.77615361      69.14751434
H       -2.14865029       0.70786812       1.95247575      69.14751434
H       -0.94273053       1.80678558       1.28914887      69.14751434
C       -2.99331401       2.44040027       0.92346944      69.14751434
H       -3.96808712       1.98815118       0.67076110      69.14751434
H       -2.72344815       3.09134264       0.07571007      69.14751434
C       -3.14731052       3.29726760       2.18138621      69.14751434
H       -3.44293970       2.68260104       3.04809286      69.14751434
H       -2.19889968       3.79708380       2.43906757      69.14751434
H       -3.91359210       4.07791957       2.04785949      69.14751434
