70
Properties=species:S:1:pos:R:3:energy:R:1 pbc="F F F"
C        1.00764698      -3.44152109       0.13164126      33.39863586
H        1.26312444      -4.13577386      -0.67560226      33.39863586
H        1.81958892      -3.37768120       0.86403463      33.39863586
C       -0.36000507      -3.52902570       0.70143756      33.39863586
H       -1.05360267      -4.10778153       0.07894351      33.39863586
H       -0.46030134      -3.80984095       1.75527585      33.39863586
H       -0.75187101      -2.38480461       0.90929133      33.39863586
Rh       0.06964358      -1.63635609      -0.50446043      33.39863586
C        1.41216443      -0.06551529       2.51649050      33.39863586
C        3.33991887      -0.84566006       0.48845247      33.39863586
C        1.70712269       1.40129516       0.04036572      33.39863586
C       -1.90993770       0.39566590      -2.49038027      33.39863586
C       -3.39602787      -0.74536351      -0.26913197      33.39863586
C       -1.63037537       1.42922168       0.20934936      33.39863586
P       -1.70400286      -0.13784528      -0.73291891      33.39863586
P        1.57358360      -0.31856332       0.68071272      33.39863586
C        0.06361463      -2.19323995      -2.28800113      33.39863586
O        0.03766991      -2.60848347      -3.36931276      33.39863586
H        0.48857481       0.51922753       2.64348201      33.39863586
C        1.32450234      -1.37923940       3.29006447      33.39863586
H        2.22608419      -1.99644686       3.14830115      33.39863586
H        0.45780404      -1.97409141       2.96633184      33.39863586
H        2.23498100       0.55592641       2.90186167      33.39863586
H        1.21553580      -1.18924158       4.36982579      33.39863586
C        4.36132585      -0.39244583       1.33526849      33.39863586
H        4.13277436       0.27346707       2.16883830      33.39863586
C        3.67948999      -1.67447314      -0.58966007      33.39863586
H        2.88315658      -2.02719189      -1.24721454      33.39863586
C        5.68783394      -0.77011007       1.12557713      33.39863586
H        6.49195314      -0.42876747       1.77923528      33.39863586
C        5.00143356      -2.05579349      -0.81891434      33.39863586
H        5.27381284      -2.70426293      -1.65323575      33.39863586
C        5.98863645      -1.60060437       0.04850459      33.39863586
F        7.26143437      -1.96995001      -0.15327832      33.39863586
C        1.68643593       1.56140186      -1.35398881      33.39863586
H        1.55335181       0.67737964      -1.98356434      33.39863586
C        1.84754656       2.53215574       0.84985012      33.39863586
H        1.84643020       2.44171505       1.93605053      33.39863586
C        1.81378829       2.82161499      -1.93246758      33.39863586
H        1.80129819       2.96015144      -3.01529551      33.39863586
C        1.96761283       3.80324787       0.28583270      33.39863586
H        2.05887993       4.69502772       0.90778297      33.39863586
C        1.95153438       3.92947729      -1.09863711      33.39863586
F        2.04957828       5.15010912      -1.64728773      33.39863586
H       -1.84454095      -0.53732795      -3.06902975      33.39863586
C       -3.15756110       1.18301535      -2.86193394      33.39863586
H       -3.27006294       2.09370769      -2.25568566      33.39863586
H       -4.06277208       0.57537483      -2.71932261      33.39863586
H       -0.97925083       0.94175163      -2.71558538      33.39863586
H       -3.11379308       1.48534292      -3.91980847      33.39863586
C       -4.44271527       0.12957468       0.08310514      33.39863586
H       -4.27312448       1.20668968       0.11640789      33.39863586
C       -3.66527527      -2.12068812      -0.30458956      33.39863586
H       -2.86370542      -2.80941307      -0.57414474      33.39863586
C       -5.71127056      -0.35543653       0.40385525      33.39863586
H       -6.52976954       0.31030603       0.68726683      33.39863586
C       -4.92995561      -2.62165728       0.01178291      33.39863586
H       -5.14486047      -3.69161374      -0.00530172      33.39863586
C       -5.93609847      -1.72954450       0.36941924      33.39863586
F       -7.14663228      -2.20102679       0.69574406      33.39863586
C       -1.77827938       1.40140179       1.60536645      33.39863586
H       -1.96819461       0.45182228       2.11277584      33.39863586
C       -1.37271119       2.65468851      -0.41478494      33.39863586
H       -1.21851910       2.70457385      -1.49058957      33.39863586
C       -1.68720358       2.57105932       2.35850668      33.39863586
H       -1.80257417       2.56588739       3.44396091      33.39863586
C       -1.28772184       3.83401217       0.32255560      33.39863586
H       -1.08319192       4.78890184      -0.16256117      33.39863586
C       -1.44578686       3.77659637       1.70173858      33.39863586
F       -1.35816422       4.90522971       2.42021994      33.39863586
