76
Properties=species:S:1:pos:R:3:energy:R:1 pbc="F F F"
C       -1.28881034       1.28601446       3.32354586      64.30932617
H       -1.50796126       0.65066879       4.18475944      64.30932617
H       -0.77441166       2.21933082       3.56746636      64.30932617
C       -2.05574758       1.18590244       2.14934436      64.30932617
H       -2.90133542       0.50105786       2.08376517      64.30932617
H       -2.13791796       2.05377230       1.49271252      64.30932617
H       -0.04810179      -0.41297754       0.27719976      64.30932617
Rh      -0.09670022       0.13380183       1.78499786      64.30932617
O       -0.56272851       2.09405059      -0.89288565      64.30932617
C        0.59620420       3.57707492       0.96643672      64.30932617
C        2.08240941       1.36730620      -0.56320918      64.30932617
O        0.12419219      -3.01222928       0.75853251      64.30932617
C       -0.53347476      -3.09938918       3.32506561      64.30932617
C       -2.49226772      -2.34372121       1.08574528      64.30932617
P       -0.79658240      -2.02892399       1.81038086      64.30932617
P        0.53473978       1.80119802       0.37771598      64.30932617
C        1.48428208      -0.17117028       2.80375385      64.30932617
O        2.36808911      -0.36572550       3.52532631      64.30932617
C       -1.48655328       1.18762137      -1.33934683      64.30932617
C       -2.84317823       1.43398715      -1.10464169      64.30932617
H       -3.12979742       2.33408702      -0.56016903      64.30932617
C       -1.10477127       0.05114390      -2.06249017      64.30932617
H       -0.04991403      -0.13234840      -2.26160756      64.30932617
C       -3.81166034       0.53088380      -1.54273143      64.30932617
H       -4.86960185       0.71236986      -1.34714822      64.30932617
C       -2.06917551      -0.85638499      -2.50513448      64.30932617
H       -1.78042209      -1.74913396      -3.06225380      64.30932617
C       -3.41734721      -0.62099965      -2.22884539      64.30932617
Cl      -4.62495993      -1.78825114      -2.73028994      64.30932617
H       -0.44670711       3.69124176       1.31411032      64.30932617
C        1.51320916       3.74259146       2.18261126      64.30932617
H        1.30910452       4.70691939       2.67533470      64.30932617
H        1.35934441       2.94020662       2.91912463      64.30932617
H        2.57378728       3.73763727       1.89291940      64.30932617
C        0.84836222       4.62286677      -0.12262397      64.30932617
H        0.21041569       4.44840761      -1.00011623      64.30932617
H        0.63002927       5.63076647       0.26783663      64.30932617
H        1.89909859       4.61675377      -0.44883469      64.30932617
H        1.90430440       0.29491843      -0.73338696      64.30932617
C        2.25511394       2.03329344      -1.93129779      64.30932617
H        3.04949091       1.50605123      -2.48464108      64.30932617
H        1.33283170       1.99088341      -2.52709512      64.30932617
H        2.55144546       3.08831098      -1.84297823      64.30932617
C        3.34831654       1.48316588       0.28935058      64.30932617
H        3.23554696       1.00529815       1.27185219      64.30932617
H        4.17971940       0.98176178      -0.23076968      64.30932617
H        3.63857069       2.53356692       0.44449371      64.30932617
C        1.22904946      -2.63001420       0.05052332      64.30932617
C        1.14135046      -2.51287579      -1.34113506      64.30932617
H        0.18713997      -2.71663210      -1.82714222      64.30932617
C        2.45305033      -2.40042182       0.68940029      64.30932617
H        2.52745976      -2.50990044       1.77063479      64.30932617
C        2.25512817      -2.12503911      -2.08867629      64.30932617
H        2.19080412      -2.01831188      -3.17280144      64.30932617
C        3.56528142      -1.99605561      -0.04837780      64.30932617
H        4.51259698      -1.78657742       0.45008144      64.30932617
C        3.45650587      -1.84305243      -1.43281324      64.30932617
Cl       4.82734505      -1.24801716      -2.34501323      64.30932617
H        0.56405341      -3.00843858       3.42084877      64.30932617
C       -1.15370162      -2.49773468       4.58714222      64.30932617
H       -0.80039640      -3.04786562       5.47444062      64.30932617
H       -0.86656286      -1.44256495       4.70365167      64.30932617
H       -2.25163293      -2.55913531       4.57685331      64.30932617
C       -0.86792847      -4.58057903       3.12981786      64.30932617
H       -0.41320929      -4.97403198       2.20999732      64.30932617
H       -0.48359711      -5.16724696       3.98091133      64.30932617
H       -1.95462410      -4.74863443       3.07986511      64.30932617
H       -2.55728761      -1.49978223       0.38060280      64.30932617
C       -2.66877785      -3.63474610       0.28099033      64.30932617
H       -3.62211428      -3.58455796      -0.27021970      64.30932617
H       -1.86133395      -3.76702916      -0.45030022      64.30932617
H       -2.69044953      -4.52582184       0.92489394      64.30932617
C       -3.59325417      -2.16857653       2.13586389      64.30932617
H       -3.42921393      -1.29280969       2.78071436      64.30932617
H       -4.56512466      -2.03216159       1.63408788      64.30932617
H       -3.67671031      -3.05404832       2.78430115      64.30932617
