56
Properties=species:S:1:pos:R:3:energy:R:1 pbc="F F F"
C       -4.15391424      -0.69953897       1.91171547      47.56372452
H       -3.89741471      -0.54135821       2.96233215      47.56372452
H       -4.68515217       0.12728326       1.43465115      47.56372452
C       -4.18965565      -1.98665609       1.39491164      47.56372452
H       -3.96369478      -2.86059875       2.00784350      47.56372452
H       -4.74994926      -2.17686265       0.47574658      47.56372452
H       -2.68512079      -1.95558855      -0.35741366      47.56372452
Rh      -2.17703226      -0.97013662       0.79888638      47.56372452
O       -1.69275533       1.57272386      -1.65595476      47.56372452
O       -3.76142473       0.26662599      -1.96320026      47.56372452
O       -3.73129799       1.91151751      -0.10855298      47.56372452
O        1.05987653      -1.24881069       0.93166631      47.56372452
O        0.11334778      -3.23120369      -0.41761141      47.56372452
O        0.12500635      -1.00149660      -1.50121836      47.56372452
P       -0.19900329      -1.65744492      -0.07319515      47.56372452
P       -2.79514557       0.68324293      -0.67995330      47.56372452
C       -1.36534502      -0.44673816       2.47477619      47.56372452
O       -0.87041907      -0.30491515       3.50333333      47.56372452
C       -0.47699548       2.01223161      -1.23399192      47.56372452
C        0.52652342       2.14655064      -2.20230413      47.56372452
H        0.29308181       1.88237596      -3.23519019      47.56372452
C       -0.20960049       2.34942639       0.09859387      47.56372452
H       -0.99078446       2.25794469       0.85327410      47.56372452
C        1.79233495       2.60407730      -1.84599041      47.56372452
H        2.57736931       2.70974728      -2.59663593      47.56372452
C        1.06168572       2.80077770       0.45879459      47.56372452
H        1.27714579       3.06071415       1.49637447      47.56372452
C        2.05709514       2.92430797      -0.51072232      47.56372452
Cl       3.66480298       3.46914790      -0.04609216      47.56372452
C       -3.30227363      -0.67108156      -2.92535750      47.56372452
H       -2.51058302      -0.23108290      -3.55343333      47.56372452
H       -2.90797852      -1.58052966      -2.44025187      47.56372452
H       -4.16226568      -0.94295268      -3.55401998      47.56372452
C       -4.29009981       2.91716924      -0.95659137      47.56372452
H       -3.50044685       3.41992646      -1.53683783      47.56372452
H       -5.02124200       2.47731877      -1.65111831      47.56372452
H       -4.78691623       3.64659488      -0.30228206      47.56372452
C        2.41158688      -1.24464855       0.66769446      47.56372452
C        3.12452585      -0.08364945       0.98218237      47.56372452
H        2.58844117       0.77046073       1.39231670      47.56372452
C        3.08134068      -2.35875494       0.14743247      47.56372452
H        2.52335520      -3.26141029      -0.09644214      47.56372452
C        4.50079690      -0.02208552       0.76649217      47.56372452
H        5.05363583       0.88874080       0.99699742      47.56372452
C        4.45794532      -2.29695121      -0.07830110      47.56372452
H        4.98936610      -3.15512744      -0.49255294      47.56372452
C        5.16124630      -1.12941779       0.22864640      47.56372452
Cl       6.88881722      -1.05577419      -0.05991838      47.56372452
C       -0.20043215      -4.21156661       0.56623280      47.56372452
H       -1.20123888      -4.02542517       0.99175905      47.56372452
H       -0.18331992      -5.19058506       0.06877967      47.56372452
H        0.54376312      -4.19976299       1.38078016      47.56372452
C        1.21392308      -1.29079582      -2.37943975      47.56372452
H        2.11723525      -0.75040187      -2.06208363      47.56372452
H        1.41562014      -2.37069906      -2.41478077      47.56372452
H        0.91575658      -0.93905766      -3.37647840      47.56372452
