68
Properties=species:S:1:pos:R:3:energy:R:1 pbc="F F F"
C        1.22934863      -3.36662701       0.31948364      52.63327789
H        0.57513018      -4.11275689      -0.13645948      52.63327789
H        2.15590190      -3.17893135      -0.22508130      52.63327789
C        1.17353318      -3.11977183       1.69400460      52.63327789
H        0.45989546      -3.63190567       2.34293844      52.63327789
H        2.07152739      -2.75531371       2.20057127      52.63327789
H        0.69897842      -0.95078785       1.85214142      52.63327789
Rh       0.04546749      -1.49323984       0.48904798      52.63327789
C        2.51534682       1.13725856      -0.36177601      52.63327789
C        2.86652636      -1.26668482      -1.88753451      52.63327789
C        0.64716472       0.43646648      -2.52077983      52.63327789
C       -2.74809621       0.65948631      -0.32926146      52.63327789
C       -2.27183884       0.18930594       2.55084140      52.63327789
C       -0.57310011       2.00213554       0.95988117      52.63327789
P       -1.38162245       0.32111859       0.92578028      52.63327789
P        1.51675765      -0.28526904      -1.02141394      52.63327789
C       -1.55321578      -2.53626357       0.24640510      52.63327789
O       -2.53193968      -3.13789332       0.41144942      52.63327789
C        2.39172096       2.42997637      -0.90393919      52.63327789
H        1.73520176       2.60583893      -1.75448497      52.63327789
C        3.36411417       0.96109155       0.76406713      52.63327789
C        3.53082583      -0.36604546       1.45282931      52.63327789
H        4.14509214      -1.07027713       0.86883211      52.63327789
H        2.54687191      -0.83288004       1.60540790      52.63327789
H        4.00870118      -0.24167573       2.43539852      52.63327789
C        3.07649045       3.52513268      -0.37273044      52.63327789
H        2.95700848       4.51318899      -0.82495874      52.63327789
C        4.03965358       2.07515872       1.28607341      52.63327789
H        4.67233034       1.93397015       2.16708001      52.63327789
C        3.90890246       3.34826498       0.73193055      52.63327789
H        4.44731423       4.19476719       1.16636335      52.63327789
H        3.49381329      -1.70189949      -1.09410004      52.63327789
C        2.34697315      -2.36746499      -2.81576442      52.63327789
H        1.86962585      -1.95338193      -3.71577224      52.63327789
H        1.60130197      -3.00090448      -2.31456491      52.63327789
H        3.51101560      -0.55982017      -2.43398428      52.63327789
H        3.17418895      -3.01430548      -3.15142957      52.63327789
H        0.00043906       1.24635930      -2.14650790      52.63327789
C        1.46401778       0.88605580      -3.73748291      52.63327789
H        1.92340577       0.03165818      -4.25504765      52.63327789
H        2.27502624       1.58261993      -3.48117850      52.63327789
H       -0.05241929      -0.35683919      -2.82226879      52.63327789
H        0.80939936       1.38988126      -4.46848476      52.63327789
C       -2.65699798      -0.05434284      -1.53832371      52.63327789
H       -1.85415378      -0.78407349      -1.64464002      52.63327789
C       -3.81541143       1.58957696      -0.17573660      52.63327789
C       -4.09030854       2.40034709       1.07075249      52.63327789
H       -3.19167079       2.86792356       1.49285580      52.63327789
H       -4.53481070       1.77621227       1.86195592      52.63327789
H       -4.80713730       3.20449066       0.84826623      52.63327789
C       -3.56959161       0.12050544      -2.58174392      52.63327789
H       -3.46664093      -0.45987308      -3.50206512      52.63327789
C       -4.71916576       1.75280728      -1.24213210      52.63327789
H       -5.53997001       2.46688910      -1.12472896      52.63327789
C       -4.61029653       1.03538646      -2.43367386      52.63327789
H       -5.34036442       1.18948900      -3.23353723      52.63327789
H       -3.18869498      -0.38387032       2.33867189      52.63327789
C       -1.44799508      -0.51447113       3.62829426      52.63327789
H       -0.51621937       0.02880139       3.84691474      52.63327789
H       -1.15925514      -1.52097453       3.29614324      52.63327789
H       -2.57647618       1.19001773       2.88725319      52.63327789
H       -2.02616201      -0.59407010       4.56266308      52.63327789
H       -1.35899348       2.77162987       0.95084284      52.63327789
C        0.38951963       2.23325613       2.12021803      52.63327789
H        1.10955155       1.40935106       2.21074082      52.63327789
H       -0.14824180       2.32285788       3.07734253      52.63327789
H       -0.04633731       2.09955177       0.00119223      52.63327789
H        0.96222262       3.16107674       1.96439274      52.63327789
