80
Properties=species:S:1:pos:R:3:energy:R:1 pbc="F F F"
C        3.93018285       0.29614477      -0.32230683      84.37742615
H        4.41995042      -0.02275431      -1.24570709      84.37742615
H        4.07130972       1.35452247      -0.08994490      84.37742615
C        3.86033519      -0.62587944       0.77291600      84.37742615
H        4.19417747      -1.65672281       0.62427879      84.37742615
H        4.06705126      -0.25794900       1.78380791      84.37742615
H        2.31523333      -0.45879958       1.28355268      84.37742615
Rh       1.88913063      -0.43010670      -0.28998010      84.37742615
O       -0.26806726       1.52149716       1.41352864      84.37742615
C        1.95208596       3.05748081       0.51431111      84.37742615
C       -0.38057180       2.24831400      -1.27035250      84.37742615
O       -1.39351940      -1.42726916      -0.42966424      84.37742615
C        0.29672997      -3.58136277      -0.30217483      84.37742615
C       -0.44669117      -1.72808144       2.02327081      84.37742615
P        0.10802976      -1.80853678       0.25428517      84.37742615
P        0.77121435       1.65314551       0.09356625      84.37742615
C        2.07405492      -1.18745262      -2.02522638      84.37742615
O        2.26732411      -1.71448051      -3.03936817      84.37742615
C       -1.19931561       2.45493871       1.95513251      84.37742615
H       -1.07380045       2.40588610       3.05174443      84.37742615
H       -0.95996934       3.48320166       1.65451511      84.37742615
C       -2.65188124       2.14585009       1.60596360      84.37742615
H       -3.26809498       2.89918288       2.13257705      84.37742615
H       -2.82769310       2.31615526       0.52983957      84.37742615
C       -3.12150755       0.74021429       1.98030831      84.37742615
H       -2.80489706       0.51164522       3.01395197      84.37742615
H       -2.60838510       0.01458108       1.33313597      84.37742615
C       -4.63454847       0.56116641       1.85870426      84.37742615
H       -5.17753215       1.23638721       2.54194117      84.37742615
H       -4.98559924       0.77866415       0.83690727      84.37742615
H       -4.93639069      -0.47074102       2.09950556      84.37742615
H        2.70193730       2.50976649       1.11072624      84.37742615
C        2.64529999       3.54398075      -0.76555200      84.37742615
H        3.56960705       4.08851562      -0.51157548      84.37742615
H        2.92039891       2.70900957      -1.42621567      84.37742615
H        2.00292675       4.23163551      -1.33512806      84.37742615
C        1.47564236       4.22857839       1.37613901      84.37742615
H        1.09317804       3.89328248       2.35048990      84.37742615
H        2.32468370       4.90509341       1.57496175      84.37742615
H        0.69461784       4.82659288       0.88279969      84.37742615
H       -1.21743181       1.55101695      -1.10118847      84.37742615
C       -0.92026673       3.68221112      -1.21777526      84.37742615
H       -1.67923432       3.81897726      -2.00726372      84.37742615
H       -1.39849300       3.93613518      -0.26393746      84.37742615
H       -0.12595217       4.41977822      -1.40486655      84.37742615
C        0.19193912       1.95177959      -2.66220733      84.37742615
H        0.61299012       0.94008048      -2.72041417      84.37742615
H       -0.60240517       2.04640150      -3.42160370      84.37742615
H        0.99121180       2.65822755      -2.93263552      84.37742615
C       -1.54413520      -1.40051447      -1.84817755      84.37742615
H       -0.90010931      -0.61497100      -2.27824332      84.37742615
H       -1.21657146      -2.36148877      -2.28338399      84.37742615
C       -3.00575695      -1.16750874      -2.20285638      84.37742615
H       -3.11662116      -1.32897950      -3.29074311      84.37742615
H       -3.61415999      -1.94641503      -1.70931153      84.37742615
C       -3.53940352       0.21678442      -1.83484063      84.37742615
H       -2.96735185       0.98281197      -2.38758674      84.37742615
H       -3.34252866       0.39681174      -0.76806969      84.37742615
C       -5.03026141       0.38996456      -2.11969144      84.37742615
H       -5.25925005       0.24535908      -3.18916834      84.37742615
H       -5.63330335      -0.33806393      -1.55150503      84.37742615
H       -5.37856122       1.39748136      -1.83912520      84.37742615
H        0.55014024      -3.43616615      -1.36754550      84.37742615
C        1.51493746      -4.23273762       0.35772609      84.37742615
H        1.78188117      -5.16291729      -0.16958336      84.37742615
H        2.38662067      -3.56124094       0.33292225      84.37742615
H        1.30991746      -4.49604505       1.40721347      84.37742615
C       -0.95131676      -4.46543618      -0.23012812      84.37742615
H       -1.84488388      -3.95420939      -0.61536675      84.37742615
H       -0.79637666      -5.37915632      -0.82812080      84.37742615
H       -1.16667253      -4.78113339       0.80000309      84.37742615
H       -0.66710281      -0.65064963       2.08571707      84.37742615
C       -1.70959199      -2.51959179       2.37404100      84.37742615
H       -2.10665278      -2.16547725       3.34018146      84.37742615
H       -2.49635678      -2.39986480       1.61737097      84.37742615
H       -1.49449872      -3.59241849       2.48747142      84.37742615
C        0.68664192      -2.01361734       3.01189068      84.37742615
H        1.59888576      -1.45931622       2.75160472      84.37742615
H        0.38177626      -1.70303104       4.02416705      84.37742615
H        0.93752813      -3.08483654       3.05494849      84.37742615
