94
Properties=species:S:1:pos:R:3:energy:R:1 pbc="F F F"
C        0.67223836       2.26819500      -3.07466146      51.80609894
H        0.43644205       1.80602446      -4.03682804      51.80609894
H       -0.16983020       2.74449476      -2.57016365      51.80609894
C        1.98636412       2.68978562      -2.81709223      51.80609894
H        2.78212125       2.55102249      -3.55187082      51.80609894
H        2.14128707       3.52803084      -2.12974914      51.80609894
H        1.89789386       1.88444380      -0.75494735      51.80609894
Rh       1.45916667       0.71735908      -1.72679658      51.80609894
O       -0.49686689       0.76201433       1.18695482      51.80609894
O       -1.40867946       2.09419007      -0.79564984      51.80609894
O       -1.53416997      -0.49289881      -0.70721246      51.80609894
O        3.46338451      -1.95188896      -1.43331454      51.80609894
O        4.14571269      -0.28087239       0.29306957      51.80609894
O        2.15318898      -1.62689300       0.74295624      51.80609894
P        2.80186583      -0.76527059      -0.55402337      51.80609894
P       -0.48418516       0.73950438      -0.45899613      51.80609894
C        1.39963216      -0.52537290      -3.20882525      51.80609894
O        1.46463296      -1.19959509      -4.13710215      51.80609894
C        0.44177350       1.51997821       1.98245115      51.80609894
H        1.43944731       1.40844236       1.52988145      51.80609894
C        0.44561861       0.89183982       3.36691943      51.80609894
H        0.74509769      -0.16357583       3.30634893      51.80609894
H       -0.55614147       0.94902558       3.82328924      51.80609894
H        1.15917587       1.41819764       4.01754915      51.80609894
C        0.07222189       2.99863235       2.01101446      51.80609894
H        0.04479294       3.42152073       0.99695200      51.80609894
H       -0.91409147       3.15262457       2.47760236      51.80609894
H        0.82167071       3.55286332       2.59672201      51.80609894
C       -2.77575603       2.21875003      -0.66291181      51.80609894
C       -3.39987818       2.16980911       0.58745604      51.80609894
H       -2.79631607       2.02996505       1.48276553      51.80609894
C       -3.53506003       2.38959490      -1.82140289      51.80609894
H       -3.02515590       2.43045675      -2.78583636      51.80609894
C       -4.78908644       2.24946906       0.66091492      51.80609894
H       -5.27298873       2.18504727       1.63944435      51.80609894
C       -4.92586378       2.47713940      -1.72939113      51.80609894
H       -5.51544334       2.59894589      -2.64251733      51.80609894
C       -5.57873181       2.39027330      -0.49187258      51.80609894
C       -7.08280296       2.40094417      -0.39588871      51.80609894
H       -7.43180150       3.01173920       0.45198287      51.80609894
H       -7.47104906       1.37860401      -0.23997163      51.80609894
H       -7.54572785       2.79431124      -1.31349934      51.80609894
C       -2.72927123      -0.82226948      -0.09608473      51.80609894
C       -3.85492096      -0.93402100      -0.91278900      51.80609894
H       -3.75410612      -0.72506178      -1.97821014      51.80609894
C       -2.81685655      -1.08660219       1.27139609      51.80609894
H       -1.92502226      -1.01625728       1.88828752      51.80609894
C       -5.08267979      -1.27631988      -0.34994117      51.80609894
H       -5.96204144      -1.34901601      -0.99587389      51.80609894
C       -4.05546397      -1.42767762       1.81758467      51.80609894
H       -4.12160108      -1.63012388       2.89069646      51.80609894
C       -5.21061891      -1.52118728       1.02666664      51.80609894
C       -6.55147158      -1.84479025       1.63432417      51.80609894
H       -7.18388431      -2.41419732       0.93540290      51.80609894
H       -7.10296749      -0.92343456       1.89421156      51.80609894
H       -6.44642768      -2.43428625       2.55804110      51.80609894
C        4.40508762      -2.92877239      -0.88988256      51.80609894
H        4.36018992      -2.87357724       0.20937442      51.80609894
C        5.80099340      -2.54946780      -1.36183208      51.80609894
H        6.06010425      -1.54331875      -1.00384517      51.80609894
H        5.84801818      -2.55776260      -2.46218128      51.80609894
H        6.54705457      -3.26181825      -0.97430085      51.80609894
C        3.95758149      -4.30968062      -1.34200269      51.80609894
H        2.95258908      -4.54073653      -0.95921096      51.80609894
H        3.93780612      -4.36852823      -2.44163431      51.80609894
H        4.65678334      -5.07435144      -0.96644503      51.80609894
C        4.08117015       0.83399510       1.10328382      51.80609894
C        4.01579911       0.67888830       2.48666931      51.80609894
H        4.02747377      -0.32660158       2.91076233      51.80609894
C        4.06658262       2.10581688       0.52656530      51.80609894
H        4.12810689       2.19482219      -0.55669844      51.80609894
C        3.92869219       1.81594046       3.29504201      51.80609894
H        3.89747495       1.69750418       4.38154104      51.80609894
C        3.93169176       3.22456425       1.34324537      51.80609894
H        3.87417684       4.21431951       0.88190913      51.80609894
C        3.86362048       3.10241642       2.74034978      51.80609894
C        3.72355360       4.32913325       3.60439003      51.80609894
H        2.71012031       4.76028515       3.52735171      51.80609894
H        4.43080361       5.11439476       3.29308110      51.80609894
H        3.90972259       4.10079626       4.66381291      51.80609894
C        1.04943797      -2.44972922       0.74198659      51.80609894
C        0.50798000      -2.79513898       1.98815653      51.80609894
H        0.99494632      -2.43751468       2.89712227      51.80609894
C        0.46429810      -2.96177717      -0.42115488      51.80609894
H        0.89622054      -2.74563186      -1.39649117      51.80609894
C       -0.63577784      -3.59226092       2.05986252      51.80609894
H       -1.05753875      -3.83445724       3.04050816      51.80609894
C       -0.69205313      -3.74088736      -0.32886818      51.80609894
H       -1.15688298      -4.10123089      -1.25048274      51.80609894
C       -1.28014732      -4.05760495       0.90237136      51.80609894
C       -2.58592213      -4.80990101       0.97150616      51.80609894
H       -2.69672836      -5.35267141       1.92345727      51.80609894
H       -2.68142626      -5.53805351       0.15104639      51.80609894
H       -3.43676369      -4.11032707       0.89219044      51.80609894
