60
Properties=species:S:1:pos:R:3:energy:R:1 pbc="F F F"
C        0.80413136      -4.32287318      -0.07321667      46.68986893
H        0.25753269      -5.04454743      -0.68376185      46.68986893
H        1.77960776      -4.00264345      -0.44274109      46.68986893
C        0.48974277      -4.18167453       1.27454941      46.68986893
H       -0.30187624      -4.77098208       1.74094834      46.68986893
H        1.22600402      -3.75502368       1.96000017      46.68986893
H       -0.53768293      -2.36098151       1.70935313      46.68986893
Rh      -0.47757453      -2.45669047       0.09607030      46.68986893
C        1.64011213       0.34576879       1.03662108      46.68986893
O        2.83583409      -1.85925628      -0.15579815      46.68986893
O        1.46509062      -0.14577382      -1.55384996      46.68986893
C       -1.84590223       0.55598292      -1.10393661      46.68986893
O       -3.51728017      -0.96728681       0.24190802      46.68986893
O       -1.63347771       0.36385096       1.49082817      46.68986893
P       -1.88738831      -0.70430424       0.25437300      46.68986893
P        1.36978910      -1.08303461      -0.13442759      46.68986893
C       -1.53158154      -3.22006209      -1.30502880      46.68986893
O       -2.22131373      -3.69829193      -2.10160367      46.68986893
H        0.68966775       0.90124348       1.00352970      46.68986893
H        1.67924221      -0.13355754       2.02732643      46.68986893
C        2.82192584       1.24614541       0.81824240      46.68986893
C        3.96091379       1.14079137       1.63033621      46.68986893
H        3.97671953       0.40576285       2.43951435      46.68986893
C        2.82250230       2.20510799      -0.20931695      46.68986893
H        1.94885663       2.29375733      -0.85638213      46.68986893
C        5.07820062       1.95319304       1.42451885      46.68986893
H        5.96668982       1.87808233       2.05439216      46.68986893
C        3.93078373       3.02276651      -0.43073163      46.68986893
H        3.94160810       3.76898225      -1.22753288      46.68986893
C        5.04807948       2.88476978       0.39083938      46.68986893
F        6.11740265       3.66903582       0.18155130      46.68986893
C        4.05726109      -1.34557132      -0.68617357      46.68986893
H        3.88643431      -0.44448238      -1.29254484      46.68986893
H        4.75015214      -1.09534394       0.13049169      46.68986893
H        4.50787001      -2.12790896      -1.31692871      46.68986893
C        1.17027979      -0.75976978      -2.79978655      46.68986893
H        1.95580180      -1.48134416      -3.08427176      46.68986893
H        0.20607382      -1.29420953      -2.76123337      46.68986893
H        1.12557921       0.03680982      -3.55652211      46.68986893
H       -0.78159012       0.77630608      -1.26596823      46.68986893
H       -2.20854505       0.02861139      -1.99972304      46.68986893
C       -2.62942887       1.81193351      -0.82719912      46.68986893
C       -4.01542142       1.86520643      -1.04181924      46.68986893
H       -4.53059879       0.98375535      -1.42767729      46.68986893
C       -1.98887117       2.94800081      -0.30846075      46.68986893
H       -0.91138013       2.92346988      -0.12761915      46.68986893
C       -4.74591927       3.02012737      -0.75451833      46.68986893
H       -5.82375651       3.07342189      -0.91994993      46.68986893
C       -2.70396813       4.11036540      -0.01418337      46.68986893
H       -2.21431367       5.00029360       0.38618681      46.68986893
C       -4.07810596       4.12960796      -0.24156826      46.68986893
F       -4.77415720       5.24629507       0.03471595      46.68986893
C       -4.10740079      -2.01592313       0.99627115      46.68986893
H       -3.41931153      -2.87397254       1.08463474      46.68986893
H       -4.38173505      -1.65865828       2.00312916      46.68986893
H       -5.02007460      -2.33102067       0.46972097      46.68986893
C       -1.54420686      -0.01582033       2.85295136      46.68986893
H       -2.54886820      -0.17145289       3.28040059      46.68986893
H       -0.95435507      -0.94168964       2.96823204      46.68986893
H       -1.04880214       0.80613612       3.38904807      46.68986893
