96
Properties=species:S:1:pos:R:3:energy:R:1 pbc="F F F"
C        0.73781064      -2.55745600      -2.14831307      97.66785431
H        1.02240288      -3.60733578      -2.01375724      97.66785431
H       -0.09569042      -2.49823353      -2.85716448      97.66785431
C        1.85296233      -1.58785490      -2.38062469      97.66785431
H        2.84268227      -2.04973644      -2.28913255      97.66785431
H        1.76960689      -0.98668987      -3.28953481      97.66785431
H        1.77248754      -0.64940537      -1.63591372      97.66785431
Rh       0.68998500      -1.41681694      -0.37459132      97.66785431
C       -1.01173206       0.43099419      -3.03112186      97.66785431
C       -2.59856331      -1.44012718      -1.41271754      97.66785431
C       -1.86509318       1.11947898      -0.26605868      97.66785431
C        0.83361853      -0.89558533       3.02672299      97.66785431
C        3.28045872      -0.13758396       1.66791529      97.66785431
C        0.97775537       1.64353569       1.68212247      97.66785431
P        1.42644176      -0.13726317       1.42940521      97.66785431
P       -1.17845986      -0.25572945      -1.29106594      97.66785431
C        1.07079699      -2.94565030       0.58099379      97.66785431
O        1.39414711      -3.92000096       1.12170372      97.66785431
H       -0.41688220      -0.35015011      -3.53484198      97.66785431
C       -2.29670727       0.60698123      -3.84792847      97.66785431
H       -2.04369821       0.93290027      -4.87163553      97.66785431
H       -2.86302846      -0.33145645      -3.93560457      97.66785431
H       -2.96620553       1.36683980      -3.41998083      97.66785431
C       -0.16579354       1.70819655      -3.01878614      97.66785431
H        0.78349753       1.55867420      -2.48264540      97.66785431
H        0.07488715       2.02528977      -4.04693036      97.66785431
H       -0.69821684       2.54478002      -2.53684179      97.66785431
H       -3.50193993      -0.93311283      -1.78726313      97.66785431
H       -2.31149171      -2.19024050      -2.16789332      97.66785431
C       -2.87403464      -2.13146440      -0.07803374      97.66785431
H       -1.92783208      -2.56350422       0.28758601      97.66785431
H       -3.17627357      -1.37934180       0.67337394      97.66785431
C       -3.94155808      -3.21855060      -0.15937405      97.66785431
H       -3.62543491      -3.98059810      -0.89569552      97.66785431
H       -4.88300703      -2.79084499      -0.55264530      97.66785431
C       -4.21073572      -3.89281476       1.18581055      97.66785431
H       -3.26548207      -4.31515050       1.57226549      97.66785431
H       -4.51652655      -3.12487511       1.92000900      97.66785431
C       -5.27471265      -4.98533929       1.10948229      97.66785431
H       -5.45549819      -5.44936258       2.09201383      97.66785431
H       -4.97338163      -5.78526739       0.41227660      97.66785431
H       -6.23541642      -4.58056227       0.74806825      97.66785431
H       -1.88011375       0.70979450       0.75658325      97.66785431
H       -1.09476104       1.90217937      -0.25719430      97.66785431
C       -3.22301302       1.72752176      -0.60202359      97.66785431
H       -3.18512585       2.21864642      -1.58759090      97.66785431
H       -3.98640009       0.93507379      -0.68527822      97.66785431
C       -3.67388495       2.74863588       0.44321195      97.66785431
H       -2.90905480       3.54291260       0.53078492      97.66785431
H       -3.71040100       2.26025862       1.43513542      97.66785431
C       -5.03174174       3.37885940       0.13497720      97.66785431
H       -4.98754345       3.86150823      -0.85849492      97.66785431
H       -5.78738211       2.57727653       0.04379316      97.66785431
C       -5.48251280       4.39440978       1.18235300      97.66785431
H       -6.46164461       4.83087030       0.92867181      97.66785431
H       -4.75982639       5.22317009       1.27010212      97.66785431
H       -5.57136797       3.92836406       2.17800877      97.66785431
H        1.22047599      -1.92560061       2.95549950      97.66785431
C        1.37909008      -0.25540297       4.30054533      97.66785431
H        1.06707344      -0.84833393       5.17491695      97.66785431
H        2.47753384      -0.20305468       4.31035271      97.66785431
H        0.98600927       0.76405984       4.44014614      97.66785431
C       -0.69573094      -0.97232158       3.04945215      97.66785431
H       -1.08720863      -1.44992132       2.14058178      97.66785431
H       -1.02942360      -1.55480611       3.92283587      97.66785431
H       -1.14707829       0.03071754       3.13379963      97.66785431
H        3.54782070       0.54639318       2.49225755      97.66785431
H        3.53813864      -1.15814689       1.99975693      97.66785431
C        4.06893496       0.20279130       0.40277336      97.66785431
H        3.65243248      -0.38185671      -0.43174541      97.66785431
H        3.91549339       1.26262695       0.13847310      97.66785431
C        5.57044816      -0.07619355       0.48933451      97.66785431
H        5.72905846      -1.13871488       0.75037616      97.66785431
H        6.02786107       0.50940903       1.30868242      97.66785431
C        6.28347483       0.23604066      -0.82874202      97.66785431
H        5.78618173      -0.32712706      -1.63935377      97.66785431
H        6.13395851       1.30344916      -1.07393537      97.66785431
C        7.77503720      -0.08922614      -0.81903163      97.66785431
H        8.24919850       0.15225783      -1.78393143      97.66785431
H        7.94560510      -1.16059770      -0.62140052      97.66785431
H        8.30236224       0.47964879      -0.03514938      97.66785431
H       -0.11251184       1.64265126       1.83032008      97.66785431
H        1.42542749       1.97845466       2.63070753      97.66785431
C        1.33976184       2.61383523       0.55845973      97.66785431
H        2.43308336       2.75313438       0.51951148      97.66785431
H        1.06313043       2.17454980      -0.41364911      97.66785431
C        0.66631712       3.97995969       0.71586332      97.66785431
H        0.96550922       4.43174270       1.67985207      97.66785431
H       -0.42874281       3.84068200       0.78364361      97.66785431
C        0.98133798       4.94499534      -0.42782183      97.66785431
H        2.07392069       5.10377369      -0.47568984      97.66785431
H        0.70778244       4.46523331      -1.38478966      97.66785431
C        0.26875028       6.29126801      -0.30877408      97.66785431
H        0.51744888       6.95612424      -1.15142655      97.66785431
H        0.54991370       6.81323938       0.62157032      97.66785431
H       -0.82693130       6.16379480      -0.29594195      97.66785431
