54
Properties=species:S:1:pos:R:3:energy:R:1 pbc="F F F"
C        1.69603503      -2.51301040      -0.10022972      61.64843369
H        1.71019424      -3.19041248      -0.96122505      61.64843369
H        2.70469120      -2.18024792       0.15824298      61.64843369
C        0.78270454      -2.80029316       1.01880531      61.64843369
H        0.15301604      -3.68689836       0.86675804      61.64843369
H        1.22616081      -2.77888001       2.01584235      61.64843369
H        0.01884255      -1.74108831       1.31414767      61.64843369
Rh       0.19000488      -1.00299781      -0.24411479      61.64843369
C        2.06710060       1.38715611       1.85393888      61.64843369
C        3.46906624       0.33436044      -0.40932808      61.64843369
C        1.36802685       2.26399305      -0.79306260      61.64843369
C       -2.04315852       1.43570734      -1.39663219      61.64843369
C       -3.31669738      -0.71376406       0.09579129      61.64843369
C       -1.80723424       1.33861452       1.53139359      61.64843369
P       -1.73606422       0.26553782       0.02314412      61.64843369
P        1.72811431       0.69734268       0.15293732      61.64843369
C       -0.53556853      -1.85484837      -1.75883514      61.64843369
O       -1.05269419      -2.48520789      -2.58279628      61.64843369
H        1.19728416       2.01220532       2.11558961      61.64843369
C        2.26353196       0.30258109       2.91076806      61.64843369
H        3.16383965      -0.30096051       2.71225585      61.64843369
H        1.40159173      -0.38245926       2.92364997      61.64843369
H        2.94103030       2.05911736       1.81364262      61.64843369
H        2.37323265       0.73846510       3.91677847      61.64843369
H        3.84801940      -0.47389537       0.23503803      61.64843369
C        3.54963849      -0.07269725      -1.87958639      61.64843369
H        3.29702777       0.76972609      -2.54306762      61.64843369
H        2.84108233      -0.88619166      -2.09757636      61.64843369
H        4.09985890       1.21368750      -0.20274819      61.64843369
H        4.56401392      -0.41130869      -2.14385048      61.64843369
H        0.45649515       2.67433268      -0.33131467      61.64843369
C        2.44865156       3.33955920      -0.87080262      61.64843369
H        3.34767161       2.97918337      -1.39222663      61.64843369
H        2.75688697       3.68932837       0.12661502      61.64843369
H        1.06731990       1.93090293      -1.79815219      61.64843369
H        2.07897192       4.21568007      -1.42724879      61.64843369
H       -1.55103010       0.95947814      -2.25881856      61.64843369
C       -3.47469297       1.83070581      -1.74712046      61.64843369
H       -4.00650777       2.28704577      -0.89980266      61.64843369
H       -4.06544239       0.96668687      -2.08576503      61.64843369
H       -1.43958754       2.32688758      -1.16793115      61.64843369
H       -3.46955782       2.56569250      -2.56787720      61.64843369
H       -3.38766704      -1.22408339      -0.87855833      61.64843369
C       -3.34089995      -1.73274544       1.23151637      61.64843369
H       -3.30533993      -1.24096405       2.21725464      61.64843369
H       -2.47469486      -2.40767153       1.16233794      61.64843369
H       -4.17673342      -0.02819989       0.16142551      61.64843369
H       -4.25854941      -2.34147406       1.19715071      61.64843369
H       -0.93524481       2.00593849       1.44332081      61.64843369
C       -3.07326461       2.15042347       1.79772702      61.64843369
H       -3.97128924       1.51454506       1.82932620      61.64843369
H       -3.23442627       2.91985563       1.02817640      61.64843369
H       -1.57772569       0.67032733       2.37749166      61.64843369
H       -3.00464541       2.66771568       2.76825222      61.64843369
