98
Properties=species:S:1:pos:R:3:energy:R:1 pbc="F F F"
C        1.19730348       0.51274998      -3.49450054      99.37015533
H        1.24911143       1.57513260      -3.74837248      99.37015533
H        2.16503509       0.00856567      -3.47523735      99.37015533
C        0.03049709      -0.20847067      -3.79453737      99.37015533
H       -0.81989316       0.26389089      -4.28943516      99.37015533
H        0.12031821      -1.28440908      -3.97056458      99.37015533
H       -0.04606073      -1.28261521      -1.81370513      99.37015533
Rh       0.15161757       0.27248208      -1.56176891      99.37015533
O        2.41772843      -2.03002881      -0.20915849      99.37015533
C        3.69765102       0.05935576      -1.18151215      99.37015533
C        2.30694058       0.18721039       1.34535819      99.37015533
O       -0.78377836      -0.67022827       1.57208762      99.37015533
C       -2.37728429       1.36736781       0.70720128      99.37015533
C       -2.69541920      -1.31107693      -0.36061007      99.37015533
P       -1.40927445      -0.08899543       0.12462157      99.37015533
P        2.10243751      -0.40007122      -0.39033097      99.37015533
C       -0.07713953       2.18107150      -1.51914334      99.37015533
O       -0.31891903       3.31096625      -1.56373458      99.37015533
C        1.38609701      -2.96107429       0.15305598      99.37015533
H        0.48991091      -2.40078083       0.46411287      99.37015533
C        1.88853018      -3.77643765       1.33826415      99.37015533
H        2.12894306      -3.11963697       2.18829017      99.37015533
H        2.80015827      -4.33209619       1.06440353      99.37015533
H        1.12527900      -4.50223511       1.66324510      99.37015533
C        1.04322339      -3.82983581      -1.05040420      99.37015533
H        0.67418546      -3.20157919      -1.87415380      99.37015533
H        1.93496023      -4.37603611      -1.39674491      99.37015533
H        0.25952812      -4.56181204      -0.79397227      99.37015533
H        3.66193099      -0.36483855      -2.19691926      99.37015533
H        3.66009407       1.15500506      -1.31156022      99.37015533
C        4.97420892      -0.38531014      -0.47841732      99.37015533
H        5.05586155       0.10502102       0.50708406      99.37015533
H        4.91313655      -1.46824812      -0.28056005      99.37015533
C        6.22151761      -0.07227028      -1.30156612      99.37015533
H        6.26353066       1.01423701      -1.50560512      99.37015533
H        6.13234103      -0.55833079      -2.29136644      99.37015533
C        7.51928243      -0.51896163      -0.63264864      99.37015533
H        7.60251399      -0.03021907       0.35539866      99.37015533
H        7.46178958      -1.60343072      -0.42611365      99.37015533
C        8.76027815      -0.21482208      -1.46829799      99.37015533
H        9.68290175      -0.54659569      -0.96636267      99.37015533
H        8.85247806       0.86735971      -1.66124937      99.37015533
H        8.71079455      -0.71964989      -2.44789322      99.37015533
H        1.49656244      -0.29833132       1.90813729      99.37015533
H        3.26621904      -0.17679868       1.74564742      99.37015533
C        2.17993282       1.70442481       1.46191459      99.37015533
H        2.96811862       2.19833304       0.86395506      99.37015533
H        1.22529024       2.01955574       1.00679243      99.37015533
C        2.24972291       2.21004190       2.90092668      99.37015533
H        3.22026496       1.92409768       3.34734630      99.37015533
H        1.47847937       1.69377027       3.49963495      99.37015533
C        2.05437818       3.72113548       3.02013417      99.37015533
H        2.82628241       4.23677903       2.42034384      99.37015533
H        1.08729353       3.99555828       2.56041707      99.37015533
C        2.10031864       4.21812974       4.46347464      99.37015533
H        1.95056231       5.30760287       4.52795841      99.37015533
H        3.07012239       3.98360885       4.93414413      99.37015533
H        1.31666921       3.73584597       5.07268759      99.37015533
C       -1.52029992      -0.87750994       2.79503470      99.37015533
H       -2.58861310      -0.67554132       2.62111321      99.37015533
C       -1.02964085       0.09014349       3.86736716      99.37015533
H       -1.15323989       1.13586380       3.54936809      99.37015533
H        0.03392731      -0.08046678       4.09511970      99.37015533
H       -1.60301822      -0.05380733       4.79854855      99.37015533
C       -1.36655481      -2.33433974       3.21610965      99.37015533
H       -1.73827597      -3.01021087       2.43177174      99.37015533
H       -0.30716315      -2.57256745       3.39807761      99.37015533
H       -1.93151227      -2.53267440       4.14159673      99.37015533
H       -2.94363513       1.11565790       1.61888491      99.37015533
H       -1.63630971       2.13022549       0.99909113      99.37015533
C       -3.31387703       1.90613740      -0.37156589      99.37015533
H       -2.79885288       1.88127743      -1.34619437      99.37015533
H       -4.18361730       1.23287486      -0.46949867      99.37015533
C       -3.79524101       3.32714279      -0.09680730      99.37015533
H       -2.91469403       3.98879953      -0.00830160      99.37015533
H       -4.31106102       3.36688140       0.88114171      99.37015533
C       -4.71868010       3.85298740      -1.19349119      99.37015533
H       -4.18882117       3.79093727      -2.16108520      99.37015533
H       -5.59323876       3.18265823      -1.28443711      99.37015533
C       -5.18117533       5.28607117      -0.94678307      99.37015533
H       -5.83757361       5.64848082      -1.75359814      99.37015533
H       -4.31946849       5.97108943      -0.88031162      99.37015533
H       -5.73859869       5.36456873       0.00198577      99.37015533
H       -3.02349811      -0.93506715      -1.34427874      99.37015533
H       -2.13308861      -2.23371884      -0.57964052      99.37015533
C       -3.89995937      -1.59420150       0.53021197      99.37015533
H       -3.58649121      -2.11730443       1.44698503      99.37015533
H       -4.37179907      -0.65166015       0.85748154      99.37015533
C       -4.93673484      -2.44919504      -0.19300316      99.37015533
H       -4.45283927      -3.37825936      -0.54690253      99.37015533
H       -5.26787281      -1.91873248      -1.10515989      99.37015533
C       -6.14816830      -2.79760425       0.66699060      99.37015533
H       -5.80390493      -3.32211422       1.57727068      99.37015533
H       -6.62165045      -1.86273342       1.01921522      99.37015533
C       -7.17101940      -3.65475240      -0.07393196      99.37015533
H       -8.03747341      -3.90002478       0.55946751      99.37015533
H       -6.71835815      -4.60299442      -0.40956872      99.37015533
H       -7.54428696      -3.13398063      -0.97167995      99.37015533
