54
Properties=species:S:1:pos:R:3:energy:R:1 pbc="F F F"
C        0.49486060      -3.50731418      -1.09140904      40.99036407
H       -0.36321577      -4.09002174      -1.43228001      40.99036407
H        1.17069437      -3.12886624      -1.85946496      40.99036407
C        0.91636452      -3.60598661       0.22810573      40.99036407
H        0.40661482      -4.25414555       0.94341033      40.99036407
H        1.93639367      -3.32046079       0.49579137      40.99036407
H        0.45832144      -1.80219233       1.42980982      40.99036407
Rh      -0.30934581      -1.67800842       0.01196225      40.99036407
C        2.43145537       0.72866589       0.00687841      40.99036407
O        2.34631287      -1.10623297      -1.96975881      40.99036407
O        0.74123398       0.94696057      -1.96726399      40.99036407
C       -2.04970587       1.35717432       0.10094159      40.99036407
O       -2.50823318      -0.24893826       2.13157882      40.99036407
O       -0.23833084       1.04545150       1.93852635      40.99036407
P       -1.25958941       0.04971551       1.09838378      40.99036407
P        1.27291318      -0.29722221      -0.97748220      40.99036407
C       -2.00751867      -2.20532812      -0.69036562      40.99036407
O       -3.05792998      -2.55835928      -1.02658047      40.99036407
C        2.36225773       2.12593399       0.07033547      40.99036407
C        3.37498951       0.05112006       0.79437222      40.99036407
C        4.16434348       2.15423479       1.69161472      40.99036407
C        4.24326974       0.75890845       1.62646251      40.99036407
C        3.22331743       2.83428885       0.91328320      40.99036407
H        1.63327903       2.64856226      -0.54924031      40.99036407
H        3.16003101       3.92453411       0.96081011      40.99036407
H        4.83784347       2.71081190       2.34829623      40.99036407
H        4.98002111       0.22199705       2.22929870      40.99036407
H        3.42510479      -1.04047978       0.75602497      40.99036407
C        3.36008572      -0.42751111      -2.70316805      40.99036407
H        2.94160643       0.43015871      -3.25431270      40.99036407
H        4.15892701      -0.06316537      -2.03591316      40.99036407
H        3.78471441      -1.14812550      -3.41694385      40.99036407
C       -0.35593400       0.73033148      -2.84565921      40.99036407
H       -0.01193048       0.27501157      -3.79003876      40.99036407
H       -1.10835422       0.07081190      -2.38474227      40.99036407
H       -0.81194568       1.70861959      -3.05232300      40.99036407
C       -3.24820393       1.06648921      -0.56777584      40.99036407
C       -1.44808509       2.61073548      -0.07177960      40.99036407
C       -3.22596463       3.26538548      -1.58113236      40.99036407
C       -2.03485845       3.55914527      -0.91249185      40.99036407
C       -3.83350413       2.01822991      -1.40442315      40.99036407
H       -3.72571861       0.09363129      -0.43757254      40.99036407
H       -4.76859012       1.78589439      -1.91994350      40.99036407
H       -3.68329578       4.00963675      -2.23832609      40.99036407
H       -1.56021318       4.53535702      -1.04176227      40.99036407
H       -0.52345456       2.83567108       0.45753349      40.99036407
C       -2.55698237      -1.42724743       2.92619958      40.99036407
H       -2.00593133      -2.25102251       2.44123079      40.99036407
H       -2.12393446      -1.23425518       3.92207056      40.99036407
H       -3.61387934      -1.70778991       3.04317749      40.99036407
C        0.68694736       0.59770414       2.91521744      40.99036407
H        0.19623044       0.51843636       3.90007113      40.99036407
H        1.11245740      -0.38048579       2.63862414      40.99036407
H        1.49501088       1.34038045       2.96377130      40.99036407
