80
Properties=species:S:1:pos:R:3:energy:R:1 pbc="F F F"
C        1.94493319      -0.35958955      -2.36737421      62.05618286
H        1.96576305       0.52448253      -3.01365107      62.05618286
H        2.88026643      -0.54503249      -1.83245736      62.05618286
C        1.08519143      -1.44180288      -2.67870071      62.05618286
H        0.45351249      -1.40346859      -3.56977142      62.05618286
H        1.38469457      -2.44723612      -2.37209738      62.05618286
H        0.94300006      -1.50241801      -0.26028189      62.05618286
Rh       0.28262544      -0.25738720      -0.96569564      62.05618286
C        2.58528460       0.07310139       1.75544731      62.05618286
C        2.60964378       2.21820715      -0.17528314      62.05618286
C        0.51693835       2.10537103       1.82313440      62.05618286
C       -2.84622301       0.15837860       0.87410718      62.05618286
C       -2.41471124      -2.54888419      -0.15964135      62.05618286
C       -0.88384945      -1.52505276       2.08301563      62.05618286
P       -1.48619014      -1.05107767       0.37669680      62.05618286
P        1.41350977       1.00319365       0.60031954      62.05618286
C       -0.68992449       0.81791459      -2.25028331      62.05618286
O       -1.17372199       1.26123995      -3.19912909      62.05618286
H        1.93963808      -0.44281097       2.48227665      62.05618286
H        3.19532944       0.80448380       2.30720098      62.05618286
C        3.46064127      -0.90970544       1.02631363      62.05618286
C        4.71984380      -0.53400326       0.53376653      62.05618286
H        5.10843346       0.46283587       0.75809331      62.05618286
C        3.00679778      -2.21093499       0.75307435      62.05618286
H        2.04432217      -2.53462685       1.14885935      62.05618286
C        5.48373014      -1.41746808      -0.23509109      62.05618286
H        6.46572440      -1.10845967      -0.60183429      62.05618286
C        3.75282639      -3.08699089      -0.03557043      62.05618286
H        3.35776004      -4.08103646      -0.26058091      62.05618286
C        4.99439681      -2.69064164      -0.53943628      62.05618286
H        5.58006270      -3.37458435      -1.15864932      62.05618286
H        3.23345412       2.69486749       0.60001232      62.05618286
H        3.28330783       1.60974599      -0.79814676      62.05618286
C        1.91045007       3.27006363      -1.03890549      62.05618286
H        1.31030383       3.93936436      -0.39705927      62.05618286
H        1.19184640       2.76221063      -1.70242966      62.05618286
C        2.88320145       4.09957299      -1.87662642      62.05618286
H        3.61541768       4.62850081      -1.24352168      62.05618286
H        3.44912951       3.45645608      -2.57124374      62.05618286
H        2.35194942       4.85466864      -2.47818917      62.05618286
H       -0.21301855       2.66940784       1.21730623      62.05618286
H       -0.08549193       1.43253244       2.45686665      62.05618286
C        1.33124694       3.06163358       2.69845407      62.05618286
H        1.90709747       3.74931970       2.05730944      62.05618286
H        2.07592734       2.49429781       3.28208431      62.05618286
C        0.45718256       3.87914398       3.65135216      62.05618286
H       -0.27719530       4.48588372       3.09569093      62.05618286
H       -0.10677739       3.22497783       4.33737071      62.05618286
H        1.06305111       4.56522475       4.26489219      62.05618286
H       -2.31724232       1.05059543       1.24232244      62.05618286
H       -3.40212063      -0.27574716       1.71873969      62.05618286
C       -3.78366920       0.50865669      -0.24441507      62.05618286
C       -4.91784837      -0.28082230      -0.49495929      62.05618286
H       -5.14420717      -1.11890778       0.16952569      62.05618286
C       -3.52969158       1.59788179      -1.08922766      62.05618286
H       -2.66056686       2.23043038      -0.89653556      62.05618286
C       -5.75422990      -0.00892125      -1.57868875      62.05618286
H       -6.63006948      -0.63757420      -1.75900459      62.05618286
C       -4.35965270       1.86878227      -2.17874242      62.05618286
H       -4.12456080       2.70517009      -2.84108335      62.05618286
C       -5.47054472       1.06098943      -2.43336829      62.05618286
H       -6.11481280       1.26518514      -3.29208035      62.05618286
H       -3.22094315      -2.78097792       0.55719283      62.05618286
H       -2.89739105      -2.28241258      -1.11337088      62.05618286
C       -1.48164759      -3.74670394      -0.35064833      62.05618286
H       -1.02687341      -4.02069472       0.61806174      62.05618286
H       -0.64565311      -3.43778799      -0.99961172      62.05618286
C       -2.19231211      -4.96125497      -0.94283460      62.05618286
H       -3.02543292      -5.29401013      -0.30093831      62.05618286
H       -2.61073021      -4.72723429      -1.93575529      62.05618286
H       -1.50074315      -5.81073245      -1.06249067      62.05618286
H        0.02188181      -2.13251306       1.93605474      62.05618286
H       -0.54022938      -0.58559301       2.54687637      62.05618286
C       -1.85555856      -2.24239959       3.02313973      62.05618286
H       -2.13970637      -3.21524660       2.58912373      62.05618286
H       -2.79320672      -1.66864627       3.11500797      62.05618286
C       -1.27071906      -2.46469183       4.41962387      62.05618286
H       -0.34666020      -3.06527463       4.37599086      62.05618286
H       -1.01832361      -1.50704576       4.90561452      62.05618286
H       -1.98235431      -2.99374078       5.07383117      62.05618286
