80
Properties=species:S:1:pos:R:3:energy:R:1 pbc="F F F"
C        0.12410112      -3.39389599      -1.48353688      40.37124252
H        0.21582655      -4.18210392      -0.73250081      40.37124252
H       -0.87639353      -3.28981700      -1.91472313      40.37124252
C        1.25758267      -2.97652732      -2.19275895      40.37124252
H        2.25089028      -3.38212602      -1.99083263      40.37124252
H        1.12949922      -2.53367180      -3.18487049      40.37124252
H        1.27277580      -0.84940171      -1.85812634      40.37124252
Rh       0.72080471      -1.49142223      -0.50792902      40.37124252
C       -1.23803515       0.34562437      -2.73036908      40.37124252
O       -2.72338172      -1.19807562      -1.28864039      40.37124252
O       -1.67177099       0.84479205      -0.06087430      40.37124252
C        0.96894545       1.01610191       1.98439035      40.37124252
O        3.22707396       0.37613013       0.84839804      40.37124252
O        1.48452777       1.71521391      -0.60969755      40.37124252
P        1.61055396       0.40428218       0.38781504      40.37124252
P       -1.25445630      -0.43099019      -1.06987471      40.37124252
C        1.22489085      -2.48605515       1.08332814      40.37124252
O        1.70019782      -3.02166004       1.99108132      40.37124252
H       -0.48091754       1.14319308      -2.70516024      40.37124252
H       -0.90527079      -0.42048237      -3.44619661      40.37124252
H       -2.22019032       0.73378543      -3.02913815      40.37124252
C       -3.42145506      -1.92097212      -0.34032208      40.37124252
C       -2.79166577      -2.73822844       0.60126417      40.37124252
H       -1.70346524      -2.79981595       0.62153419      40.37124252
C       -4.82176596      -1.79177505      -0.39117714      40.37124252
C       -5.45429257      -0.89717836      -1.42188961      40.37124252
H       -5.12488224       0.14599735      -1.29368328      40.37124252
H       -5.16128493      -1.19755057      -2.44077371      40.37124252
H       -6.55070224      -0.92522259      -1.34879088      40.37124252
C       -3.56818031      -3.43924165       1.52846980      40.37124252
H       -3.07608421      -4.07352265       2.27006521      40.37124252
C       -5.57241708      -2.51120723       0.54719588      40.37124252
H       -6.66208424      -2.42359829       0.52390938      40.37124252
C       -4.95983647      -3.32913073       1.50351332      40.37124252
H       -5.57001015      -3.87782094       2.22483515      40.37124252
C       -2.89440949       1.48968777      -0.00954074      40.37124252
C       -3.25143840       2.41306182      -0.99985632      40.37124252
H       -2.55750163       2.61528037      -1.81547592      40.37124252
C       -3.73017290       1.23747819       1.09271324      40.37124252
C       -3.33181304       0.29283248       2.19532002      40.37124252
H       -4.00044735      -0.58178875       2.22442426      40.37124252
H       -2.30798313      -0.07641268       2.05981142      40.37124252
H       -3.39689855       0.79382059       3.17520164      40.37124252
C       -4.48137040       3.06865875      -0.93067977      40.37124252
H       -4.76152752       3.78173663      -1.70958070      40.37124252
C       -4.95833983       1.91466899       1.13884806      40.37124252
H       -5.62578046       1.72669326       1.98457106      40.37124252
C       -5.34253590       2.81017822       0.13974645      40.37124252
H       -6.30937313       3.31501425       0.20229949      40.37124252
H        1.07986347       0.20936991       2.72298114      40.37124252
H        1.52943957       1.90114955       2.31831200      40.37124252
H       -0.09469831       1.26074940       1.87052168      40.37124252
C        4.13491103      -0.42788323       0.19190130      40.37124252
C        4.18306418      -0.47290275      -1.20199850      40.37124252
H        3.50279172       0.14992037      -1.78137630      40.37124252
C        4.98265218      -1.21143958       0.99000091      40.37124252
C        4.87377472      -1.15820270       2.48990636      40.37124252
H        4.91884701      -0.12089014       2.85833162      40.37124252
H        3.90946766      -1.57447143       2.82637899      40.37124252
H        5.67939814      -1.73504559       2.96641720      40.37124252
C        5.08789928      -1.32704908      -1.83245631      40.37124252
H        5.11267540      -1.37405335      -2.92360803      40.37124252
C        5.88936382      -2.05150319       0.33160260      40.37124252
H        6.56022555      -2.67259465       0.93120245      40.37124252
C        5.94218693      -2.11998457      -1.06407541      40.37124252
H        6.65054873      -2.79404537      -1.55069703      40.37124252
C        1.46467483       3.04687871      -0.21924109      40.37124252
C        0.23087960       3.63188795       0.07314925      40.37124252
H       -0.66516347       3.01571821       0.03246254      40.37124252
C        2.65983557       3.78622586      -0.19389906      40.37124252
C        3.98413740       3.15256046      -0.51990596      40.37124252
H        4.30728827       2.47489526       0.28445350      40.37124252
H        3.92092006       2.54284122      -1.43382365      40.37124252
H        4.75978773       3.91809006      -0.66245214      40.37124252
C        0.16717479       4.98523974       0.40833849      40.37124252
H       -0.79902583       5.44265493       0.63479001      40.37124252
C        2.56306110       5.14500449       0.14256134      40.37124252
H        3.47827223       5.74343560       0.16063574      40.37124252
C        1.33848997       5.74558661       0.44301317      40.37124252
H        1.30115956       6.80754532       0.69817238      40.37124252
