66
Properties=species:S:1:pos:R:3:energy:R:1 pbc="F F F"
C        1.45949790      -2.78941748       1.87745475      30.77055359
H        1.68248829      -3.71576432       1.34061188      30.77055359
H        2.34879340      -2.32500776       2.31172035      30.77055359
C        0.20821205      -2.68012641       2.59053140      30.77055359
H       -0.49783882      -3.51024619       2.47766292      30.77055359
H        0.21936199      -2.27300329       3.60410116      30.77055359
H       -0.40809869      -1.35340358       2.21759102      30.77055359
Rh       0.21737561      -1.48958968       0.68171234      30.77055359
O        2.14433544       1.15853169       1.91134874      30.77055359
C        3.48861928      -0.39359094       0.14563077      30.77055359
C        1.58991153       1.56263884      -0.59796252      30.77055359
O       -1.13476081       0.19611414      -1.70859104      30.77055359
C       -3.08639939      -1.22932199      -0.48561903      30.77055359
C       -2.15311172       1.21444321       0.67271332      30.77055359
P       -1.54005815      -0.28859753      -0.17114298      30.77055359
P        1.78860578       0.18004789       0.58147268      30.77055359
C       -0.06247506      -2.88283149      -0.60296966      30.77055359
O       -0.30177401      -3.77907447      -1.28921808      30.77055359
C        2.21795274       0.57671458       3.19740102      30.77055359
H        1.31969392      -0.02667533       3.41769663      30.77055359
H        3.11083561      -0.06621963       3.30033140      30.77055359
H        2.28876847       1.39592102       3.92806082      30.77055359
C        4.58899019       0.47324682       0.25442164      30.77055359
H        4.43451029       1.49546745       0.60641590      30.77055359
C        3.69269131      -1.69934628      -0.31584400      30.77055359
H        2.83397505      -2.36596582      -0.40651709      30.77055359
C        5.87047925       0.03858060      -0.07821414      30.77055359
H        6.74000997       0.69423834      -0.00361440      30.77055359
C        4.97025044      -2.14885648      -0.65653144      30.77055359
H        5.14489751      -3.16681086      -1.00936251      30.77055359
C        6.04160347      -1.27165638      -0.52755446      30.77055359
F        7.27319486      -1.69408369      -0.84372488      30.77055359
C        1.33246100       2.87437877      -0.18101224      30.77055359
H        1.30943346       3.10340404       0.88385335      30.77055359
C        1.63699886       1.27772316      -1.96972610      30.77055359
H        1.81686709       0.25380203      -2.30380852      30.77055359
C        1.12974234       3.89211379      -1.11629100      30.77055359
H        0.93544345       4.92130179      -0.80878540      30.77055359
C        1.44209767       2.28324842      -2.91362072      30.77055359
H        1.48516530       2.08124674      -3.98535140      30.77055359
C        1.18714469       3.58001777      -2.47056722      30.77055359
F        0.99736481       4.55281100      -3.37604499      30.77055359
C       -1.87576082       1.14062648      -2.45447912      30.77055359
H       -2.92749179       0.82882569      -2.57884658      30.77055359
H       -1.84433456       2.13602443      -1.98350614      30.77055359
H       -1.40263923       1.20386482      -3.44382040      30.77055359
C       -4.03701845      -1.41892486       0.52820441      30.77055359
H       -3.91142337      -0.92375339       1.49388775      30.77055359
C       -3.26125612      -1.88090245      -1.71521535      30.77055359
H       -2.51549719      -1.75566453      -2.50227959      30.77055359
C       -5.14941531      -2.23310139       0.31911837      30.77055359
H       -5.89904507      -2.39085980       1.09670939      30.77055359
C       -4.36742425      -2.70127578      -1.93610765      30.77055359
H       -4.51667851      -3.21726345      -2.88634302      30.77055359
C       -5.29801181      -2.86572029      -0.91362435      30.77055359
F       -6.36182963      -3.65422788      -1.11938578      30.77055359
C       -3.38327920       1.80617587       0.33439860      30.77055359
H       -4.02596295       1.34303140      -0.41576813      30.77055359
C       -1.35792246       1.82669535       1.65215377      30.77055359
H       -0.40389083       1.37729755       1.92690152      30.77055359
C       -3.81237952       2.97551057       0.95861689      30.77055359
H       -4.76741913       3.44243051       0.71061701      30.77055359
C       -1.77550375       2.99569767       2.28892505      30.77055359
H       -1.16775269       3.47779858       3.05665437      30.77055359
C       -2.99940898       3.55427766       1.93222695      30.77055359
F       -3.41162283       4.67078704       2.54307149      30.77055359
