60
Properties=species:S:1:pos:R:3:forces:R:3 energy=65.8154067993164 pbc="F F F"
C       -1.03036911      -3.00367556      -0.76588761      -0.00626350      -0.02108392      -0.00891631
H       -1.25549869      -3.66368426       0.07398834      -0.00754330      -0.03845022      -0.01046822
H       -1.89495664      -2.71874512      -1.36905181      -0.01541106      -0.01509258      -0.01491321
C        0.23742976      -3.07616206      -1.36549519      -0.00158111      -0.00550894      -0.00292260
H        1.01807022      -3.73137626      -0.97875322      -0.00516762      -0.00854206       0.01014132
H        0.31969168      -2.84722063      -2.43114622      -0.01597416       0.00028144       0.00580370
H        0.60626832      -1.05114169      -1.50292218       0.01025325      -0.02057751      -0.00233378
Rh       0.03034442      -1.23947006      -0.01222873      -0.00897967      -0.01616486      -0.00037317
C       -1.38751306       1.33083542      -2.17778128       0.00477361      -0.00653881      -0.00399372
C       -3.34267053      -0.29243736      -0.90654009      -0.00261298      -0.00019526      -0.00235487
C       -1.97624994       1.75190083       0.61579058       0.00739746      -0.00108938       0.00256398
C        1.72594109       0.82147724       2.35372644       0.00338047       0.00171695       0.00987148
C        3.46351992      -0.55410935       0.53240510       0.00994370       0.00037079       0.00804839
C        1.94302995       1.76452900      -0.36793511       0.00250723       0.00109373       0.00104561
P        1.77380113       0.19476505       0.60733502       0.00246509      -0.00305382       0.00395577
P       -1.63016001       0.37516874      -0.60995150       0.00500509      -0.01181613      -0.00037706
C       -0.16589831      -1.86063417       1.78955755      -0.00573996      -0.00227099       0.00268756
O       -0.18073777      -2.28018284       2.86846843       0.01723355      -0.01006171      -0.00148998
H       -0.47429998       1.93869294      -2.10253537       0.00380202      -0.00322996       0.00795701
H       -1.24563191       0.61479079      -3.00104964       0.00479270      -0.00193769      -0.01420251
H       -2.23847795       1.98781997      -2.41840394      -0.00335564      -0.00338831       0.01330678
H       -4.00318558       0.50838547      -1.28161483      -0.00296369       0.01278257       0.00785549
H       -3.24344877      -1.02255073      -1.72762049      -0.00364883      -0.00741141      -0.00387333
C       -3.94482524      -0.96659436       0.32759484      -0.00413142      -0.00271107      -0.00134125
H       -4.15959384      -0.20037599       1.09349194      -0.01607685       0.00609519       0.00047131
H       -3.18764813      -1.63374114       0.77233063       0.00829243      -0.01184094      -0.00762130
C       -5.21822559      -1.75396291       0.02198125      -0.00897034      -0.00408958      -0.00372216
H       -5.99898409      -1.10926023      -0.41581227      -0.01592997       0.00445242      -0.00107364
H       -5.01626118      -2.56452093      -0.69820550      -0.00420853      -0.01386075      -0.00424777
H       -5.63453664      -2.21315731       0.93294518       0.00587774       0.00642312       0.01019699
H       -2.12295193       1.25085070       1.58725548      -0.00572197      -0.00914376       0.00662975
H       -1.02876743       2.31028478       0.71515549       0.01243909       0.00180416      -0.01105396
C       -3.12869643       2.72258473       0.33447611      -0.00552899       0.00458398      -0.00355254
H       -4.07600050       2.16232792       0.26120807      -0.01572710       0.00185625       0.00761937
H       -2.98553461       3.20550762      -0.64703312      -0.00083896       0.02108261      -0.00848798
C       -3.27265958       3.80262195       1.40977204       0.00504258       0.00698027       0.00715796
H       -3.45692326       3.35684500       2.40155154      -0.00549369       0.00191564       0.01352573
H       -2.35930989       4.41592948       1.48823793       0.00865973       0.01557546       0.00020850
H       -4.11245476       4.48168529       1.18868103      -0.00350260      -0.00458957      -0.00871427
H        1.70322641      -0.03688684       3.04055414       0.00134173       0.00033196       0.01628254
H        2.58939822       1.45674797       2.60917818       0.00532478       0.01307897       0.00089589
H        0.80000202       1.39669708       2.50690393       0.00240053       0.00527391      -0.00568067
H        4.20462406       0.12576975       0.98676603       0.01383935       0.01332436      -0.00157489
H        3.40153248      -1.44878719       1.17434400       0.00608782      -0.01038793       0.00667232
C        3.88614887      -0.95499402      -0.88111503       0.00563231      -0.00036031      -0.00127122
H        3.97066231      -0.05293630      -1.51331296       0.01064950       0.00950067      -0.00416253
H        3.08693030      -1.56802052      -1.33032848      -0.00320389      -0.00806679       0.00369663
C        5.21098166      -1.71543672      -0.89937722       0.01133241      -0.00489259       0.00397012
H        6.02475858      -1.11279379      -0.46212425       0.01645403       0.00483664       0.00147190
H        5.13755307      -2.64603485      -0.31210015       0.00309619      -0.01366597       0.00753452
H        5.50759899      -1.98799064      -1.92465690      -0.00719625       0.00145597      -0.01097628
H        1.94392054       1.45657130      -1.42632398       0.00471224      -0.01013864       0.00065896
H        1.00351180       2.32283627      -0.21849399      -0.00492098      -0.00202648       0.01595011
C        3.14343547       2.66657560      -0.06698769       0.00639414       0.00814867       0.00248858
H        4.07901159       2.11530042      -0.26040240       0.01141116       0.00073176      -0.00880530
H        3.16014590       2.92441757       1.00526988       0.00243869       0.02231160       0.00670155
C        3.13889254       3.95574229      -0.89097831      -0.00492398       0.00661469      -0.00847182
H        3.16589144       3.74068688      -1.97221124       0.00783163       0.00317466      -0.01503050
H        2.23145207       4.55160251      -0.69546905      -0.00592535       0.01643537       0.00019620
H        4.01019308       4.58762572      -0.65394581       0.00141461      -0.00531534       0.00759697
