50
Properties=species:S:1:pos:R:3:forces:R:3 energy=57.01716613769531 pbc="F F F"
C       -3.25316406       0.04292725      -0.54517480      -0.00293249       0.01119473      -0.00858944
H       -4.03140265      -0.30744623       0.13683705      -0.01931665      -0.00164566      -0.01514261
H       -3.29177965       1.11731560      -0.75130084      -0.00511963      -0.00721578      -0.00540206
C       -2.80155639      -0.81669906      -1.60000208      -0.00272302      -0.00525161      -0.00220918
H       -3.13752598      -1.85781507      -1.60295606      -0.01695651      -0.00254496      -0.01251118
H       -2.68168320      -0.41176581      -2.61008251       0.00402856       0.00261626       0.01209409
H       -1.19942287      -0.58885232      -1.56289573      -0.00310152      -0.00650609      -0.00381604
Rh      -1.30867193      -0.66121048       0.07710238      -0.00343848      -0.00339195       0.01378533
O        0.10238857       2.65506130       0.26330845      -0.00043921      -0.00117785      -0.00233988
C       -2.08003436       2.33087541       1.71748600      -0.00096719       0.00685686       0.01038980
C        0.38609270       1.21925106       2.51332485      -0.00017767      -0.00237061      -0.00027157
O        2.01392017      -0.46865322       0.05159617       0.00864189      -0.00233948      -0.00235642
C        1.22032016      -2.72394422       1.39637304       0.00149149      -0.00506026       0.00462614
C        1.22237152      -2.61305722      -1.46545921      -0.00685092      -0.00352287       0.00943979
P        0.79427224      -1.58650189       0.00912299       0.00706851       0.00010764       0.00828461
P       -0.66454375       1.37595830       1.00363713      -0.00218956       0.00092122      -0.00572282
C       -2.01881145      -1.91161566       1.34938188      -0.02388882      -0.05197595       0.00257197
O       -2.46902272      -2.74300002       2.01559562       0.01243183       0.02934499      -0.01563275
C        0.75667868       2.49503305      -1.00287126       0.00740874       0.00419487      -0.00166491
H        1.22533857       1.49766863      -1.03591844      -0.01413560       0.00982307       0.00184915
C        1.83705404       3.56436120      -1.06351953      -0.00054644      -0.01074785       0.00065403
H        2.53824490       3.45016371      -0.22234100      -0.00468690      -0.00577507      -0.00867585
H        1.38620769       4.56814211      -0.99677190       0.00420966      -0.01040514       0.00616236
H        2.40353968       3.49878540      -2.00617170      -0.00730962      -0.00914571       0.00320097
C       -0.25921569       2.60810155      -2.13211099      -0.00704498      -0.01765710       0.00224863
H       -1.00182229       1.80082051      -2.04854498       0.00703027       0.04203973      -0.01604903
H       -0.78174127       3.57743237      -2.08329904       0.01919614      -0.00349955       0.01205360
H        0.23305544       2.52278506      -3.11443203      -0.00710348       0.01026088      -0.00043188
H       -2.61181189       1.69237655       2.43894820      -0.00421092      -0.00957936       0.00839302
H       -1.71962728       3.24448797       2.21488875       0.01466050       0.00803975       0.00778750
H       -2.77946291       2.60920781       0.91716380       0.00467654       0.01138457       0.00730130
H       -0.12269206       0.56111406       3.23428484      -0.00929990      -0.00479078      -0.00233274
H        1.34153477       0.76190230       2.22368156      -0.00280567       0.00596619       0.00452760
H        0.57199291       2.20467986       2.96821587      -0.00926891       0.00365612      -0.00492593
C        3.41569660      -0.78966474       0.00733989       0.00853079       0.00475397      -0.00379713
H        3.54134477      -1.88710601       0.01762051       0.00056166       0.03063819      -0.00614277
C        4.07630941      -0.21469819       1.25208678      -0.00197857      -0.00262248      -0.00386876
H        3.63144821      -0.64254166       2.16340703      -0.00068418       0.00389665      -0.00124967
H        3.94392440       0.87819897       1.28432819      -0.00547491      -0.01175094      -0.00231012
H        5.15551616      -0.43606844       1.25724956      -0.00951660      -0.00099721      -0.00959132
C        4.00872954      -0.24446403      -1.28473643       0.00288408      -0.00087546       0.00301248
H        3.50288850      -0.67561616      -2.16144594       0.00236350       0.00723962       0.00308546
H        3.89544196       0.85041884      -1.32491550       0.00147051      -0.01189607       0.00483886
H        5.08167857      -0.48659188      -1.34991012      -0.00506188       0.00087539       0.01224240
H        2.23791823      -3.13784977       1.32873434      -0.00006317      -0.00456161       0.00117680
H        1.10446427      -2.17172674       2.33998973       0.00761542      -0.00434801       0.00418775
H        0.49269188      -3.54918819       1.39288082       0.00815678      -0.01057108       0.00620193
H        1.11853284      -1.99184598      -2.36645211       0.00318167       0.00084434       0.01406791
H        2.23916968      -3.03288624      -1.41801881      -0.00920538      -0.00377091       0.00518057
H        0.49619596      -3.43723479      -1.52955390      -0.00066099      -0.00938147      -0.00394332
