92
Properties=species:S:1:pos:R:3:forces:R:3 energy=49.79266357421875 pbc="F F F"
C       -1.60830824      -3.72551795       0.06247280      -0.00668926      -0.00979498      -0.00352982
H       -1.53134194      -4.52594666      -0.67813188      -0.02166295      -0.03495741       0.01165141
H       -1.20082976      -3.99934901       1.04158781       0.00330225       0.00337037      -0.00145748
C       -2.73831459      -2.83039136       0.04446158      -0.00903792      -0.00480777       0.00113359
H       -3.42453969      -2.91205991      -0.80634503      -0.01837966      -0.02229249       0.00079801
H       -3.26042737      -2.59577796       0.97581898       0.00653308      -0.00767964      -0.00198810
H       -2.08493409      -1.43539853       0.30416433      -0.00477487      -0.00061734       0.01149346
Rh      -0.88117760      -1.85044735      -0.73810094       0.00181859      -0.00749982      -0.01712404
C        1.93591735      -3.53052311       0.59266834      -0.00125360      -0.01161591       0.00218774
O        2.16345764      -0.88205322      -0.05445024       0.00084581      -0.00002326       0.00433130
O        1.01347771      -1.67104085       2.17981433      -0.02191702      -0.01072337      -0.01202778
C        0.42944825       0.79210443      -2.70573916       0.00349100       0.00630765      -0.01137822
O       -1.95805441       1.29322328      -1.64641968      -0.00304292       0.00476303      -0.01262740
O        0.03784337       1.20269054      -0.01706194       0.00920731      -0.00096564      -0.02261534
P       -0.62221739       0.34390930      -1.27117621       0.00029548       0.00565990      -0.01516974
P        0.99386480      -1.95129635       0.51371559      -0.00510014      -0.01117790      -0.00717321
C       -1.00412136      -2.47369477      -2.55488202      -0.03538603      -0.02826412      -0.09388302
O       -1.22740266      -2.86194639      -3.61830148       0.01659599       0.02610962       0.06920343
H        2.80949686      -3.39637006       1.25023317       0.00463391       0.00428694      -0.00491121
H        1.26734937      -4.25441272       1.08748346       0.00300680      -0.02242074      -0.00010797
C        2.34920214      -4.02850080      -0.79441683       0.00430011      -0.00808438       0.00119153
H        3.01023259      -3.28118238      -1.26488517       0.01057131      -0.00522416       0.00416019
H        1.45411970      -4.08512276      -1.43625529      -0.00175011      -0.00952381      -0.00132964
C        3.05246866      -5.38382887      -0.74985073       0.00505186      -0.00731206       0.00270008
H        3.96856403      -5.33889956      -0.13783774       0.01188687      -0.00600840      -0.00034903
H        2.39830793      -6.15628210      -0.31134411       0.00238148      -0.01560939      -0.00394230
H        3.33762758      -5.72067880      -1.75928150      -0.00494458       0.01148141      -0.00321996
C        3.49263936      -0.80978355       0.26588072      -0.00156194      -0.00756339       0.00946060
C        4.38849305      -0.58894667      -0.78734609       0.00448904      -0.00426689       0.00376467
H        3.99762663      -0.53218376      -1.80538652       0.01238735       0.01050640      -0.00179395
C        3.96616459      -0.88039159       1.58019364       0.00430140      -0.00070515      -0.00181697
H        3.26610856      -1.04451874       2.39814616       0.00384895       0.00947576       0.01861875
C        5.74870328      -0.44374377      -0.52270994       0.00496174       0.00020919       0.00252334
H        6.43721287      -0.26782544      -1.35427068      -0.00340246       0.00129385      -0.00623372
C        5.33444859      -0.73944820       1.82340926       0.00710987       0.00532268       0.00548464
H        5.69407552      -0.79615174       2.85467546       0.01172799       0.00363225       0.00970128
C        6.25082465      -0.51965060       0.78677456       0.01309829       0.00608140       0.00176172
C        7.72825080      -0.39340341       1.05894378       0.01348410       0.00141289      -0.00229399
H        7.92318776      -0.14154256       2.11229872      -0.00503541       0.00088926       0.00531174
H        8.19011961       0.38472977       0.43090481       0.00560476       0.00835977      -0.00736298
H        8.25595659      -1.33926544       0.84352133       0.00542266      -0.01037712      -0.00471852
C        0.15073060      -0.74183540       2.72093919      -0.01217897      -0.00158356      -0.01166164
C       -1.10668741      -1.14327991       3.17701962      -0.00849436       0.00187368       0.00628654
H       -1.38552486      -2.19598278       3.10382482      -0.00457197      -0.00861555       0.01792584
C        0.53439575       0.59673381       2.82054553      -0.00325263      -0.00118717      -0.00207144
H        1.51278955       0.90281914       2.44880992       0.00224188       0.01191072       0.00902090
C       -1.98257672      -0.19886893       3.71700724      -0.00903160       0.00131007       0.01276194
H       -2.96442771      -0.52278052       4.07347522      -0.01448717      -0.00325619      -0.00087724
C       -0.35214992       1.53229524       3.35247136      -0.00273327       0.00319007       0.00878336
H       -0.04984500       2.58185100       3.40311184       0.00047885       0.01036420      -0.00270611
C       -1.62889394       1.15643117       3.80019713      -0.00589636       0.00659047       0.01018012
C       -2.60416152       2.18680357       4.30945831      -0.01097339       0.00660019       0.00100919
H       -3.35073535       1.74018112       4.98392949      -0.00455278      -0.00652879       0.00357227
H       -3.15493540       2.65161273       3.47225364      -0.00835537       0.00482506      -0.01138413
H       -2.09293350       2.99695904       4.85198588       0.00506345       0.00607546      -0.00323365
H        1.45644887       0.62557442      -2.33794612       0.00090851       0.01239922       0.01900126
H        0.24194538       0.00251981      -3.45252265      -0.00427486       0.00159103      -0.01403322
C        0.26260865       2.17931378      -3.33439516       0.00270378       0.01285974      -0.00898553
H        0.44595603       2.95984518      -2.58263315       0.01133000       0.01893568      -0.00579298
H       -0.78463811       2.30243440      -3.65067138      -0.00323527       0.00433607      -0.01547019
C        1.20060841       2.38918339      -4.52208172       0.00928205      -0.00033154      -0.00740128
H        2.25771490       2.31563478      -4.21550545       0.01536487       0.01001313      -0.00865207
H        1.03033533       1.63795268      -5.31159104       0.00501029       0.00186449      -0.01682172
H        1.05262723       3.38524100      -4.96909270      -0.00793801      -0.00137317       0.00979378
C       -3.14283188       1.15233578      -0.96062267       0.00243742      -0.00153169       0.00540182
C       -3.18003907       1.01610208       0.43076653       0.00126476       0.00632531       0.00023389
H       -2.26094839       1.05254516       1.01499924      -0.00647691       0.02160737       0.02111288
C       -4.32701225       1.12090521      -1.70226297      -0.00663379       0.00153535       0.00395616
H       -4.27140190       1.23431778      -2.78679040      -0.01254377       0.00476298       0.00481420
C       -4.40831896       0.80855880       1.06374142      -0.00482422       0.00255906       0.01631574
H       -4.42120765       0.66888721       2.14763228      -0.01147064      -0.00161796       0.02284613
C       -5.54489194       0.92826980      -1.05204630      -0.01018326       0.00206447       0.01160290
H       -6.46622276       0.89594269      -1.64090457      -0.01292762      -0.00396581      -0.01105177
C       -5.60646994       0.74953228       0.34073800      -0.02216862      -0.00094524      -0.00613881
C       -6.92150643       0.48689391       1.02859334      -0.01100840      -0.00547891       0.00297856
H       -6.80989628       0.49122136       2.12297559       0.00650256       0.00020544       0.00323898
H       -7.33370347      -0.49508522       0.73894585      -0.00377706      -0.01058997       0.00114600
H       -7.67561522       1.24472884       0.76072748      -0.00521421       0.00379807      -0.00445986
C        0.53663026       2.48435111      -0.05014823       0.00094723      -0.00292725      -0.00857967
C       -0.32585096       3.58314424       0.00826645      -0.00070129       0.00244873       0.00020471
H       -1.40256862       3.41799991       0.05385661      -0.00925829       0.01205953       0.01159696
C        1.91935447       2.67715431      -0.10888942       0.00130507       0.00358796       0.00143873
H        2.57792154       1.80880283      -0.14792801       0.00860461       0.00434233       0.01022809
C        0.20422544       4.87421866      -0.01202143      -0.00020454       0.00688852       0.00630091
H       -0.47634122       5.72980158       0.02295126      -0.00587810       0.00590025      -0.00195240
C        2.43136832       3.97676042      -0.12874230       0.00500802       0.00612129       0.00439035
H        3.51439677       4.12107897      -0.18149557       0.01063361      -0.00052314      -0.00056562
C        1.58868477       5.09851754      -0.08315557       0.00370122       0.01143609       0.00705818
C        2.14955917       6.49977382      -0.07894708       0.00457224       0.01078641      -0.00086090
H        1.47832099       7.20566605      -0.59260011      -0.00749516       0.00096841      -0.00550365
H        3.13308026       6.54516786      -0.57121412       0.00927963      -0.00459373      -0.00732735
H        2.28344204       6.87338318       0.95193924      -0.00299146      -0.00119020       0.00706713
