76
Properties=species:S:1:pos:R:3:forces:R:3 energy=36.250789642333984 pbc="F F F"
C        1.03215639      -3.23742033       1.39906127      -0.00919556      -0.01403938       0.01503099
H        1.03892146      -4.24220826       0.96167958      -0.00734602      -0.04532902       0.00737267
H        2.02111481      -2.98746116       1.79572819       0.00886366       0.01129568      -0.00311682
C       -0.14054552      -2.84311894       2.21735532      -0.00492563      -0.00565174       0.00588862
H       -0.91350458      -3.61857493       2.26702183      -0.01733162      -0.02222688       0.00391161
H        0.09479546      -2.44046207       3.20221465       0.01966239      -0.00778975      -0.01250785
H       -0.62341702      -1.75134355       1.84967564       0.00610171       0.00973409       0.01219526
Rh       0.04090231      -1.78513004       0.21154645       0.00493907      -0.02014452       0.00575368
C        1.81526904       0.15997778       2.60920024      -0.00693240      -0.00338403       0.00842960
C        3.39187001      -0.71086625       0.35930613       0.00434333      -0.00110976       0.00493832
C        1.65267716       1.47546927       0.05752908      -0.00822534       0.00144214       0.00184305
C       -1.31836767      -0.04777576      -2.44032634       0.00278742      -0.00202384      -0.01382979
C       -3.30978020      -0.86559077      -0.55709296      -0.00093687      -0.00411726      -0.00623463
C       -1.65238003       1.34816937       0.07283112       0.00565536       0.00110226      -0.00470270
P       -1.54044030      -0.33799728      -0.64574771       0.00490964      -0.00311932      -0.00243086
P        1.67815653      -0.19415332       0.79635973      -0.00563826      -0.00711768       0.00298598
C       -0.20373615      -3.01410017      -1.15980047       0.01116564       0.00569421      -0.00895537
O       -0.40167818      -3.81824870      -1.97012261      -0.01467964      -0.00970810      -0.00792834
H        0.86500417       0.59323621       2.95432277      -0.01067638      -0.00124418       0.00579743
H        1.96580479      -0.79759341       3.12771690       0.00164253      -0.00958904       0.01311713
H        2.64277044       0.83737314       2.86708115       0.00108551       0.00163634      -0.01419004
C        4.50475863       0.06476949       0.72015833       0.00879958       0.00010022       0.00480488
H        4.36515680       0.99263186       1.28052345       0.01846112       0.00686663       0.00146889
C        3.59585521      -1.86801234      -0.39908119       0.00701193      -0.00218761       0.00370029
H        2.72665387      -2.45862608      -0.69661553       0.00233292      -0.00499942      -0.00420294
C        5.78875555      -0.32294850       0.34598989       0.00976012      -0.00182302      -0.00004489
H        6.64428499       0.29543183       0.63214923       0.00895693       0.00112656      -0.00093468
C        4.88579831      -2.25136207      -0.77523711       0.01259715      -0.00480784      -0.00275956
H        5.02314950      -3.15828099      -1.37032770       0.01184085      -0.00384334      -0.00784345
C        6.00287636      -1.49216719      -0.40548033       0.01644593      -0.00354004      -0.00458501
C        7.39777549      -1.91352802      -0.78716554       0.01636453      -0.00323389      -0.00328846
H        7.93871050      -2.32328144       0.08267160       0.00641281      -0.00921877       0.01535598
H        7.38531357      -2.68933035      -1.56593800      -0.00696995      -0.00749643      -0.01286661
H        7.98709342      -1.06142685      -1.16046857       0.00976308       0.01628242      -0.00538316
C        1.50200375       2.65720211       0.79007986      -0.00188838       0.00214326       0.00702244
H        1.37790737       2.62745091       1.87264343      -0.00410347       0.01729286       0.00992421
C        1.79413931       1.56453621      -1.33685741      -0.00418319       0.00127091      -0.00450812
H        1.93038149       0.64944169      -1.91974463       0.00183012       0.00172885      -0.01038102
C        1.48368355       3.89402672       0.14213713      -0.00172743      -0.00237485       0.00217345
H        1.35646880       4.80449918       0.73437779       0.00202311      -0.00912227      -0.00882443
C        1.78393967       2.80099416      -1.97611869      -0.00283876       0.00483855       0.00422794
H        1.90463025       2.84655732      -3.06240648      -0.00150669      -0.00065501       0.00803446
C        1.62115892       3.99112455      -1.24791997      -0.00177889       0.01106406      -0.00365978
C        1.55699755       5.32430141      -1.94610789      -0.00248157       0.01517970      -0.00555118
H        2.15722348       5.32858643      -2.86890126       0.00736585      -0.00238673      -0.01230810
H        0.51785077       5.56847327      -2.23157259      -0.01910747       0.00180353      -0.00634048
H        1.91560694       6.13849237      -1.29783553       0.00691386       0.01261396       0.01166260
H       -1.29403092      -1.03257348      -2.92730401      -0.00703402      -0.00585252      -0.02186767
H       -2.12651386       0.55731928      -2.86977318      -0.00701727       0.00688747       0.00090808
H       -0.34791432       0.44315935      -2.59192863       0.00516877       0.01125644       0.00212021
C       -3.64171565      -2.12687348      -0.05406882      -0.00168300      -0.00185804      -0.00243450
H       -2.83837355      -2.78715216       0.28090389       0.00138396      -0.00778083      -0.00214149
C       -4.34544146      -0.01521310      -0.98302360      -0.00796207       0.00184688      -0.00724635
H       -4.11217099       0.98261090      -1.36316378      -0.01847367       0.00710141      -0.00846774
C       -4.97872950      -2.53007234       0.02568154      -0.00897534      -0.00231899       0.00199794
H       -5.21995807      -3.51742254       0.42859571      -0.01083740      -0.00190593       0.00287941
C       -5.67530094      -0.42192596      -0.90292339      -0.01036101      -0.00197652      -0.00112627
H       -6.46926374       0.25631078      -1.23043361      -0.01016731       0.00039246       0.00105835
C       -6.01649551      -1.68677699      -0.39106801      -0.01665698      -0.00353245       0.00164853
C       -7.45788355      -2.11564594      -0.29863992      -0.01828389      -0.00506634      -0.00005183
H       -7.87215659      -2.34814726      -1.29319882      -0.00715618      -0.00651003      -0.01766605
H       -7.57174470      -3.01313731       0.32417268       0.00303373      -0.01174192       0.01258983
H       -8.08715573      -1.32202791       0.13164578      -0.00959602       0.01503246       0.00580380
C       -1.64801195       2.51307503      -0.70139622       0.00090057       0.00256126      -0.00567638
H       -1.53912237       2.45883569      -1.78479996       0.00108524       0.01855690      -0.00590155
C       -1.76785928       1.47059998       1.46636913       0.00367396      -0.00238203      -0.00044245
H       -1.76135182       0.56910146       2.08520298       0.00132325       0.00482335       0.01381777
C       -1.76199690       3.76727938      -0.09773881       0.00283531       0.00138115      -0.00138851
H       -1.74634665       4.66401374      -0.72335025      -0.00180084      -0.00890752       0.00718122
C       -1.88373609       2.72360508       2.06271403       0.00243250       0.00347949      -0.00695310
H       -1.97754639       2.79609965       3.15027754       0.00284032       0.00149817      -0.00876850
C       -1.87963707       3.89742728       1.29132944      -0.00025356       0.01082421       0.00321234
C       -1.95252977       5.24895760       1.95225247       0.00019265       0.01416322       0.00726023
H       -2.58716710       5.22380430       2.85161226      -0.00757516      -0.00302851       0.01398251
H       -0.94929975       5.58350083       2.27191423       0.01618598       0.00262581       0.00610921
H       -2.35135832       6.01530183       1.27037171      -0.00563755       0.01088573      -0.01209267
