104
Properties=species:S:1:pos:R:3:forces:R:3 energy=82.49382781982422 pbc="F F F"
C        0.74468349       0.65510374      -3.53965273      -0.00821840      -0.00537372      -0.00514954
H        0.04931760       1.30860143      -4.07548806      -0.00764165      -0.00983669      -0.01361793
H        1.78528621       0.97963671      -3.65729459      -0.00661500      -0.00193155      -0.00473596
C        0.50159826      -0.78765220      -3.56215153      -0.00009084      -0.00254808      -0.00958820
H       -0.45238699      -1.09519502      -4.00903249       0.00142362      -0.00928009      -0.01373239
H        1.31809792      -1.44705065      -3.87010169       0.00275999       0.01402039      -0.00824534
H        0.71520881      -1.24844853      -2.27823609       0.00346651      -0.00160994      -0.01010255
Rh       0.02568767       0.14175911      -1.58410252      -0.00011709       0.00512996       0.00083929
C        2.49658230       2.61806939      -1.07613731       0.00426959       0.00573719       0.00007364
C        2.42700870       0.80605662       1.14594652       0.00033735       0.00275949       0.00123151
C        3.58609688      -0.05818902      -1.34588302       0.00451024       0.00109785      -0.00087460
C       -0.97328690      -0.48673567       1.78636969      -0.00737299       0.00139664       0.00145620
C       -2.74347832      -1.53874970      -0.19737538       0.00126561      -0.00051170      -0.00092455
C       -0.22040059      -2.87942478       0.25636648       0.00077123      -0.00154769       0.00079344
P       -0.94351493      -1.17605508       0.05189520      -0.00035384       0.00211870       0.00307265
P        2.08936610       0.82396052      -0.68333389       0.00553996      -0.00192080      -0.00371969
C       -1.54189279       1.16776506      -1.81411540      -0.02151558       0.00814494      -0.00531345
O       -2.52752007       1.72365242      -2.06311930       0.01870706      -0.01708513       0.01191346
H        3.46778479       2.87703177      -0.62764835       0.00808632       0.00365837       0.01162569
H        2.60539625       2.66922649      -2.16979367      -0.00014637      -0.00792321      -0.00325781
C        1.42295573       3.55939925      -0.60405547      -0.00130929       0.00505865      -0.00013554
C        0.29676630       3.81941754      -1.40231067      -0.00129383       0.00964026      -0.00380359
H        0.22357971       3.35860927      -2.38727895       0.00461301       0.01036010      -0.00877084
C        1.48823409       4.14829177       0.66726418      -0.00766155       0.01145143       0.00426889
H        2.35473819       3.95864655       1.30567241       0.00737394       0.00157492      -0.00089119
C       -0.73411519       4.64203444      -0.95252007      -0.00176192       0.00540382      -0.00451529
H       -1.62172732       4.82697021      -1.55958965      -0.00638998       0.00077820      -0.00697233
C        0.46450982       4.97642897       1.13537311       0.01732745      -0.00352464       0.00099398
H        0.50369465       5.43732661       2.12381835       0.00295131       0.00039814       0.00370395
C       -0.63247304       5.21096081       0.31343607      -0.00382688       0.00211036      -0.00085644
F       -1.63892322       5.98766019       0.76210101      -0.00549190      -0.00789675       0.00357815
H        1.57170648       1.31209844       1.62260890      -0.01059709       0.00041147      -0.01352213
H        3.31068105       1.42951358       1.35573119       0.00477678       0.00937466      -0.01074053
C        2.60649179      -0.60256053       1.71410398      -0.00221593      -0.00089262       0.00569561
H        1.80132401      -1.24813670       1.33312343       0.00653673      -0.00464276       0.00330318
H        3.54341964      -1.04411976       1.33266503      -0.00427749       0.00081758       0.00553473
C        2.62026225      -0.68355418       3.24985411       0.00211754      -0.00380690       0.00486017
H        1.69571136      -0.20006980       3.61903982       0.00604277      -0.00914165       0.01152440
C        2.59343449      -2.14658657       3.70305981      -0.00023791       0.00170660       0.00043687
H        1.70653740      -2.67269086       3.31282907       0.00316360       0.00452243      -0.00062384
H        2.57821666      -2.22808243       4.80165730       0.00143640       0.01073911      -0.00482166
H        3.48580229      -2.68594598       3.34063956      -0.00474844       0.00143608       0.00283882
C        3.81314546       0.06277965       3.85481403      -0.00374676      -0.00403673       0.00282056
H        3.81726482      -0.01606871       4.95366541      -0.00184265      -0.00753607      -0.00496420
H        3.80267762       1.13332676       3.59838087       0.00430256      -0.00700288       0.00818865
H        4.76373183      -0.36093137       3.48542977      -0.00527556       0.00322044       0.00778032
H        3.48610130      -0.04679790      -2.44451400      -0.00074682       0.00507607      -0.00143055
H        3.43309884      -1.10815623      -1.05136631      -0.00671721       0.00301835       0.00042003
C        4.97106748       0.44066713      -0.93431808       0.00754158      -0.00256644      -0.00496573
H        5.13288541       1.44780105      -1.35342836       0.00938343      -0.00066832       0.00249094
H        5.02738686       0.55592353       0.16263632       0.00392027      -0.00079451      -0.01207730
C        6.13147142      -0.46691702      -1.38168990       0.00639479      -0.00010670       0.00141212
H        6.01588868      -0.64571527      -2.46771730       0.00616133      -0.00209234       0.00747150
C        7.47507813       0.23316365      -1.15742699       0.00070439      -0.00388928      -0.00009035
H        7.52574147       1.19053090      -1.70131820      -0.00066681      -0.00391822       0.00529124
H        8.31794598      -0.39237621      -1.49235151      -0.00523749      -0.00505715       0.00252448
H        7.62610676       0.45112821      -0.08566070       0.00172816      -0.00172932      -0.00573134
C        6.10589828      -1.82596530      -0.67363277       0.00542638       0.00303959      -0.00309443
H        6.93916820      -2.46483986      -1.00722019       0.00174181       0.00714561       0.00180830
H        5.17258873      -2.37912995      -0.86172294       0.01083741       0.00066694       0.00363752
H        6.20213513      -1.69708021       0.41904018       0.00355486      -0.00427541      -0.01036581
H       -1.16837840      -1.31181907       2.48419587      -0.01340011      -0.01914496      -0.00990013
H        0.03734762      -0.11239338       1.98183740       0.00852814       0.00859725      -0.01800442
C       -1.99520627       0.60178620       1.98098982      -0.00181310       0.00710445       0.00503191
C       -1.80215426       1.89922192       1.47577141      -0.00924781       0.01799029       0.01212216
H       -0.89224700       2.13848908       0.92248665       0.00649282       0.00880706       0.01257711
C       -3.18672735       0.32392747       2.66845632      -0.00769600       0.00157205       0.01042590
H       -3.35118807      -0.67859760       3.07218956       0.00313423       0.00058545       0.00617420
C       -2.76654785       2.89173493       1.66269515       0.00930785       0.00494175       0.00402505
H       -2.62835723       3.90640033       1.29186495       0.00645983       0.01483950      -0.00423271
C       -4.16147952       1.30405578       2.86024471      -0.00296712       0.00389402       0.00533557
H       -5.08466325       1.09657546       3.40433165      -0.00329327      -0.00298693       0.00550488
C       -3.93561645       2.57934783       2.35052273      -0.00120310       0.00515491       0.00145005
F       -4.86262094       3.53248584       2.53989663      -0.00554629      -0.00006669      -0.01034114
H       -3.22851408      -0.55397318      -0.28202312      -0.00236488      -0.00435384       0.00091803
H       -3.14794723      -2.01215197       0.71154488       0.00425099       0.00301808       0.00061032
C       -3.02551256      -2.37563938      -1.44414087      -0.00450870       0.00121243       0.00112853
H       -2.38018703      -2.01501357      -2.26356213      -0.00664690      -0.00104918       0.00072829
H       -2.74099690      -3.42870093      -1.26297659      -0.00685661       0.00552513      -0.00104137
C       -4.48779590      -2.32974042      -1.91435688      -0.00223364      -0.00243395      -0.00041329
H       -4.72446256      -1.27042788      -2.12875806      -0.00530437      -0.01019638      -0.00094037
C       -4.64541124      -3.12178989      -3.21474824      -0.00345015       0.00090250       0.00118090
H       -3.96005348      -2.74780843      -3.99273403      -0.00292369      -0.00208863       0.00532065
H       -5.67247794      -3.05894818      -3.60845188      -0.00201589      -0.00038538       0.00462781
H       -4.41275005      -4.18905553      -3.05264000      -0.00341038       0.00377192      -0.00619088
C       -5.46148766      -2.82205910      -0.83874006      -0.00276816       0.00001717      -0.00794400
H       -6.50053880      -2.80854470      -1.20586110       0.00064954      -0.00461065      -0.00649088
H       -5.42351245      -2.19785905       0.06742304      -0.00380766      -0.00968877      -0.01046274
H       -5.22619189      -3.85988799      -0.54272103      -0.00925111       0.00815609      -0.00295431
H        0.86465416      -2.75136295       0.39428802      -0.00210907       0.01599539       0.00181676
H       -0.33125307      -3.33494424      -0.74032852      -0.00209178       0.01255466      -0.00437410
C       -0.79134485      -3.79552716       1.34043917       0.00412112      -0.00530253       0.00316392
H       -0.60829806      -3.35384115       2.33475281       0.00272804      -0.01232422       0.00291595
H       -1.88852512      -3.87478790       1.23936656       0.00584918      -0.00042476       0.00746693
C       -0.19673917      -5.21661740       1.32705182      -0.00167353      -0.00578125       0.00254540
H        0.90342132      -5.11331331       1.39507692      -0.00876246      -0.00935169      -0.00033113
C       -0.66948264      -6.01379658       2.54669944       0.00102344      -0.00119948      -0.00360663
H       -0.40229755      -5.50640170       3.48822929      -0.00312131      -0.00017565      -0.00758131
H       -0.22224919      -7.02067222       2.56715828      -0.00066826       0.00528871      -0.00826062
H       -1.76646954      -6.13596231       2.53338314       0.00565650      -0.00034814       0.00215065
C       -0.52117660      -5.96371254       0.02936512       0.00136425      -0.00048708       0.00579844
H       -0.09642502      -6.98017174       0.03907380      -0.00393157       0.00480926       0.00516556
H       -0.12214076      -5.45065858      -0.85871740      -0.00083962      -0.00768970       0.00525201
H       -1.61336477      -6.05915865      -0.10203129       0.00746684      -0.00175973       0.00268279
