80
Properties=species:S:1:pos:R:3:forces:R:3 energy=61.412742614746094 pbc="F F F"
C        1.94493319      -0.35958955      -2.36737421      -0.00050987      -0.00839183      -0.00640355
H        1.96576305       0.52448253      -3.01365107       0.00947691      -0.01155951      -0.00819138
H        2.88026643      -0.54503249      -1.83245736      -0.01329498      -0.01041927      -0.00231638
C        1.08519143      -1.44180288      -2.67870071       0.00076539       0.00044190      -0.00276068
H        0.45351249      -1.40346859      -3.56977142       0.01379059      -0.01021321      -0.00944907
H        1.38469457      -2.44723612      -2.37209738      -0.00036321       0.00961171       0.00616349
H        0.94300006      -1.50241801      -0.26028189      -0.00269440      -0.00134393      -0.01273022
Rh       0.28262544      -0.25738720      -0.96569564      -0.00796481       0.00853417       0.00180490
C        2.58528460       0.07310139       1.75544731       0.00662231      -0.00305396      -0.00508923
C        2.60964378       2.21820715      -0.17528314       0.00329745       0.00622955       0.00534943
C        0.51693835       2.10537103       1.82313440      -0.00088741      -0.00296481       0.00139908
C       -2.84622301       0.15837860       0.87410718       0.00082185       0.00366692      -0.00367233
C       -2.41471124      -2.54888419      -0.15964135       0.00565215       0.00373702       0.00201739
C       -0.88384945      -1.52505276       2.08301563       0.00095825       0.00153653       0.00021709
P       -1.48619014      -1.05107767       0.37669680       0.00053170       0.00318114       0.00185794
P        1.41350977       1.00319365       0.60031954       0.00587535       0.00124088      -0.00192378
C       -0.68992449       0.81791459      -2.25028331      -0.01742787      -0.00029719      -0.01531162
O       -1.17372199       1.26123995      -3.19912909       0.01339391      -0.00509914       0.01703188
H        1.93963808      -0.44281097       2.48227665      -0.01812769       0.00492209      -0.01434292
H        3.19532944       0.80448380       2.30720098      -0.00008209       0.01650753      -0.00258114
C        3.46064127      -0.90970544       1.02631363       0.01174271       0.01049323       0.00546604
C        4.71984380      -0.53400326       0.53376653       0.01335393      -0.00253216      -0.01330718
H        5.10843346       0.46283587       0.75809331      -0.00276890      -0.00079269       0.00369031
C        3.00679778      -2.21093499       0.75307435      -0.03254359      -0.02031286      -0.00928614
H        2.04432217      -2.53462685       1.14885935       0.02167926      -0.00849813       0.00977618
C        5.48373014      -1.41746808      -0.23509109       0.00754487       0.01655481       0.00028767
H        6.46572440      -1.10845967      -0.60183429       0.00725812       0.00436660       0.00298244
C        3.75282639      -3.08699089      -0.03557043       0.00768519      -0.00098054      -0.01125110
H        3.35776004      -4.08103646      -0.26058091      -0.00416308      -0.01354924       0.00208425
C        4.99439681      -2.69064164      -0.53943628      -0.01399927      -0.00743357      -0.00825296
H        5.58006270      -3.37458435      -1.15864932      -0.00586824       0.00615931      -0.00018753
H        3.23345412       2.69486749       0.60001232      -0.00287208      -0.00067656       0.00851415
H        3.28330783       1.60974599      -0.79814676      -0.00026100       0.00967694       0.00982234
C        1.91045007       3.27006363      -1.03890549       0.00902079      -0.00165010      -0.00328596
H        1.31030383       3.93936436      -0.39705927       0.00643019      -0.00919776      -0.01667318
H        1.19184640       2.76221063      -1.70242966       0.00529143       0.00409495       0.00587642
C        2.88320145       4.09957299      -1.87662642      -0.00452276      -0.00291650       0.00192534
H        3.61541768       4.62850081      -1.24352168      -0.00674122      -0.00854999      -0.01302370
H        3.44912951       3.45645608      -2.57124374       0.00047687       0.01198534       0.00852254
H        2.35194942       4.85466864      -2.47818917       0.00554617      -0.00269003       0.00156045
H       -0.21301855       2.66940784       1.21730623       0.00537457      -0.00384266       0.00431720
H       -0.08549193       1.43253244       2.45686665       0.00211238      -0.00215024      -0.00651302
C        1.33124694       3.06163358       2.69845407      -0.00894041       0.00212577       0.00435399
H        1.90709747       3.74931970       2.05730944      -0.00120988      -0.00369329       0.01322789
H        2.07592734       2.49429781       3.28208431      -0.00793731       0.01988924       0.00257354
C        0.45718256       3.87914398       3.65135216       0.00395673       0.00336975       0.00257194
H       -0.27719530       4.48588372       3.09569093       0.00561268      -0.00379551       0.01079650
H       -0.10677739       3.22497783       4.33737071      -0.00096793       0.00871355      -0.00597485
H        1.06305111       4.56522475       4.26489219       0.00046366       0.00365937       0.00118231
H       -2.31724232       1.05059543       1.24232244       0.00671090       0.00531801      -0.00628704
H       -3.40212063      -0.27574716       1.71873969       0.00334720      -0.01208411      -0.00304160
C       -3.78366920       0.50865669      -0.24441507      -0.01171459       0.00110735       0.00594841
C       -4.91784837      -0.28082230      -0.49495929      -0.00777162       0.00269181      -0.00010864
H       -5.14420717      -1.11890778       0.16952569      -0.00307674       0.00065983       0.00492105
C       -3.52969158       1.59788179      -1.08922766       0.00074275       0.01609289       0.00017636
H       -2.66056686       2.23043038      -0.89653556      -0.00851614       0.01058921       0.01116036
C       -5.75422990      -0.00892125      -1.57868875      -0.00898790      -0.00273491       0.00058285
H       -6.63006948      -0.63757420      -1.75900459      -0.01288310      -0.00356400       0.00033191
C       -4.35965270       1.86878227      -2.17874242       0.00224689       0.00904801      -0.00360640
H       -4.12456080       2.70517009      -2.84108335       0.00891877       0.01079648      -0.00267369
C       -5.47054472       1.06098943      -2.43336829       0.00335582       0.00083494      -0.00313055
H       -6.11481280       1.26518514      -3.29208035       0.00729804      -0.00638756      -0.00239883
H       -3.22094315      -2.78097792       0.55719283       0.01283636       0.00533182      -0.00380218
H       -2.89739105      -2.28241258      -1.11337088      -0.00160115      -0.00977123       0.00987534
C       -1.48164759      -3.74670394      -0.35064833      -0.00689328       0.00094041      -0.00051928
H       -1.02687341      -4.02069472       0.61806174      -0.01134433      -0.00262752      -0.01192279
H       -0.64565311      -3.43778799      -0.99961172      -0.01284170      -0.01511057       0.00918562
C       -2.19231211      -4.96125497      -0.94283460       0.00521777       0.00158160       0.00149282
H       -3.02543292      -5.29401013      -0.30093831       0.00730489       0.00305446      -0.01402315
H       -2.61073021      -4.72723429      -1.93575529      -0.00189599      -0.01172202       0.01176248
H       -1.50074315      -5.81073245      -1.06249067      -0.00419733       0.00075680       0.00132406
H        0.02188181      -2.13251306       1.93605474      -0.00657267       0.00238433       0.00180553
H       -0.54022938      -0.58559301       2.54687637      -0.00074162       0.00070473      -0.00496783
C       -1.85555856      -2.24239959       3.02313973       0.01042882      -0.00170140       0.00449560
H       -2.13970637      -3.21524660       2.58912373       0.00157670       0.00770790       0.01439341
H       -2.79320672      -1.66864627       3.11500797       0.00799507      -0.01750762      -0.00217363
C       -1.27071906      -2.46469183       4.41962387      -0.00328242      -0.00248440       0.00271155
H       -0.34666020      -3.06527463       4.37599086      -0.00347616       0.00727078       0.00608376
H       -1.01832361      -1.50704576       4.90561452       0.00235947      -0.00947183      -0.00443384
H       -1.98235431      -2.99374078       5.07383117      -0.00027197      -0.00144399       0.00202435
