66
Properties=species:S:1:pos:R:3:forces:R:3 energy=29.881458282470703 pbc="F F F"
C        1.45949790      -2.78941748       1.87745475      -0.00417125      -0.01611908       0.00935377
H        1.68248829      -3.71576432       1.34061188       0.00855580      -0.03210623       0.02256140
H        2.34879340      -2.32500776       2.31172035      -0.01275885       0.01243064      -0.00923055
C        0.20821205      -2.68012641       2.59053140      -0.00510324      -0.01236631       0.01021319
H       -0.49783882      -3.51024619       2.47766292      -0.00361915      -0.03354686       0.01210242
H        0.21936199      -2.27300329       3.60410116       0.01224988      -0.00409784      -0.00439701
H       -0.40809869      -1.35340358       2.21759102       0.00939912       0.00665325       0.01385032
Rh       0.21737561      -1.48958968       0.68171234       0.00385297      -0.01217311      -0.00853761
O        2.14433544       1.15853169       1.91134874      -0.00884018      -0.01076281      -0.00030942
C        3.48861928      -0.39359094       0.14563077       0.00460229       0.00400313       0.00319550
C        1.58991153       1.56263884      -0.59796252      -0.01079253      -0.00685980       0.00443267
O       -1.13476081       0.19611414      -1.70859104      -0.01294599      -0.00014300      -0.00529055
C       -3.08639939      -1.22932199      -0.48561903      -0.00642853       0.00377114      -0.00648201
C       -2.15311172       1.21444321       0.67271332      -0.00138181       0.00200244       0.00371749
P       -1.54005815      -0.28859753      -0.17114298       0.00328597       0.00451010      -0.00050586
P        1.78860578       0.18004789       0.58147268      -0.01028018      -0.01275255       0.00174677
C       -0.06247506      -2.88283149      -0.60296966       0.00578891       0.01434237      -0.01045631
O       -0.30177401      -3.77907447      -1.28921808      -0.01630349      -0.02102854       0.00585253
C        2.21795274       0.57671458       3.19740102       0.00047458      -0.00709925       0.00611034
H        1.31969392      -0.02667533       3.41769663      -0.02308234      -0.01088129       0.02122459
H        3.11083561      -0.06621963       3.30033140       0.01904999      -0.00134831       0.01274851
H        2.28876847       1.39592102       3.92806082       0.00691734       0.01199081      -0.01963311
C        4.58899019       0.47324682       0.25442164       0.00717150       0.00840581       0.00485310
H        4.43451029       1.49546745       0.60641590       0.01898389       0.01988047       0.00837151
C        3.69269131      -1.69934628      -0.31584400       0.00457673       0.00247617      -0.00082585
H        2.83397505      -2.36596582      -0.40651709       0.00075359      -0.00693991      -0.00513973
C        5.87047925       0.03858060      -0.07821414       0.00705063      -0.00297054      -0.00189596
H        6.74000997       0.69423834      -0.00361440       0.01156855      -0.00891111      -0.00437318
C        4.97025044      -2.14885648      -0.65653144       0.00987170       0.00203605      -0.00228322
H        5.14489751      -3.16681086      -1.00936251       0.01108635       0.00375905      -0.00070868
C        6.04160347      -1.27165638      -0.52755446       0.01155115      -0.00230750      -0.00135907
F        7.27319486      -1.69408369      -0.84372488       0.01231910      -0.00690982      -0.00261110
C        1.33246100       2.87437877      -0.18101224      -0.00396610      -0.00091289       0.01050989
H        1.30943346       3.10340404       0.88385335      -0.01036686       0.02407672       0.01553166
C        1.63699886       1.27772316      -1.96972610      -0.00120825      -0.00516689       0.00221925
H        1.81686709       0.25380203      -2.30380852       0.00355741      -0.00696542      -0.01534930
C        1.12974234       3.89211379      -1.11629100       0.00127344      -0.00425370      -0.00273228
H        0.93544345       4.92130179      -0.80878540      -0.00252456      -0.00818314      -0.01717181
C        1.44209767       2.28324842      -2.91362072      -0.00030091       0.00617569       0.00823727
H        1.48516530       2.08124674      -3.98535140      -0.00844624       0.00392028       0.01148797
C        1.18714469       3.58001777      -2.47056722      -0.00294924       0.00487207      -0.00617579
F        0.99736481       4.55281100      -3.37604499      -0.01034531       0.00266094      -0.00834035
C       -1.87576082       1.14062648      -2.45447912      -0.01365405       0.01636387      -0.00637344
H       -2.92749179       0.82882569      -2.57884658      -0.02057448       0.01149012      -0.02042336
H       -1.84433456       2.13602443      -1.98350614       0.00463051       0.02420195       0.00035684
H       -1.40263923       1.20386482      -3.44382040       0.01601393      -0.01003512       0.00100723
C       -4.03701845      -1.41892486       0.52820441      -0.00374839       0.00486493       0.00134287
H       -3.91142337      -0.92375339       1.49388775      -0.00866602       0.00301134       0.01369990
C       -3.26125612      -1.88090245      -1.71521535      -0.00000356       0.00069360      -0.01260955
H       -2.51549719      -1.75566453      -2.50227959      -0.00020575      -0.00412993      -0.02871030
C       -5.14941531      -2.23310139       0.31911837      -0.00304110      -0.00050148      -0.00530236
H       -5.89904507      -2.39085980       1.09670939       0.00018433      -0.00584583      -0.00685435
C       -4.36742425      -2.70127578      -1.93610765      -0.00662337      -0.00412917      -0.00371204
H       -4.51667851      -3.21726345      -2.88634302      -0.01090235      -0.01028836      -0.00005590
C       -5.29801181      -2.86572029      -0.91362435      -0.00943107      -0.00528379      -0.00458602
F       -6.36182963      -3.65422788      -1.11938578      -0.01081592      -0.00790734      -0.00074988
C       -3.38327920       1.80617587       0.33439860       0.00001387       0.00271297      -0.00659425
H       -4.02596295       1.34303140      -0.41576813      -0.00878462       0.01031069      -0.01185967
C       -1.35792246       1.82669535       1.65215377       0.00506316      -0.00173030       0.00143287
H       -0.40389083       1.37729755       1.92690152       0.01098745      -0.00137641       0.00540332
C       -3.81237952       2.97551057       0.95861689       0.00662681       0.00378558       0.00015996
H       -4.76741913       3.44243051       0.71061701       0.00618196       0.00066508       0.00900687
C       -1.77550375       2.99569767       2.28892505      -0.00473624       0.00741158      -0.00235836
H       -1.16775269       3.47779858       3.05665437      -0.00855999       0.00305167      -0.00032721
C       -2.99940898       3.55427766       1.93222695       0.00106361       0.00785185       0.00169146
F       -3.41162283       4.67078704       2.54307149      -0.00829626       0.00561202       0.00280289
