74
Properties=species:S:1:pos:R:3:forces:R:3 energy=36.149864196777344 pbc="F F F"
C        0.91626467      -3.77429446      -0.14420809      -0.00446224      -0.00867556       0.00330825
H        0.49955302      -4.66162965      -0.62603721      -0.00954676      -0.01681522       0.01229781
H        1.92507637      -3.52326779      -0.48571973       0.00021555      -0.00529011      -0.00569352
C        0.53238556      -3.47172132       1.19427790       0.00365361      -0.00098150       0.00370041
H       -0.18317730      -4.12074054       1.70486724       0.00551925      -0.00333141      -0.00757147
H        1.26963766      -3.00203463       1.84887163       0.00104586       0.00045065      -0.00280791
H       -0.19336978      -1.93996675       1.24201087       0.00623163      -0.00152500       0.01121996
Rh      -0.52195351      -2.15605979      -0.34139858      -0.00262992      -0.00432413      -0.00873422
C        2.17930221      -0.84961342      -2.32946232       0.00477157      -0.00264735      -0.00418205
O        0.74475634       0.93398474      -0.78082346       0.00310039      -0.00007660       0.00279644
O        2.41064967      -0.67034422       0.40218458      -0.00009078      -0.00331774      -0.00273346
C       -2.69314211       0.08646058      -1.86661690      -0.00206574       0.00243455       0.00177320
O       -3.63919366      -1.23770754       0.39613578      -0.00554676      -0.00186296      -0.00646623
O       -2.06522652       0.81669946       0.57611470       0.00113033       0.00938916       0.00100535
P       -2.20658681      -0.62739268      -0.23804365      -0.00124942      -0.00065340      -0.00073385
P        1.20016474      -0.69364257      -0.76441354       0.00304088      -0.00607266       0.00012617
C       -1.55842298      -3.19945079      -1.55954588      -0.01102646      -0.00701005      -0.00695840
O       -2.22340706      -3.85182353      -2.22998770       0.00120631       0.01142552       0.00653195
H        2.74730634      -1.78996304      -2.23622743       0.00573397       0.00346725      -0.00693046
C        1.24844662      -0.88944483      -3.54058922       0.00787777      -0.00120408      -0.00126751
H        0.69057186       0.05494232      -3.64604654       0.00445951      -0.00614031       0.00451338
H        0.50917088      -1.69876827      -3.43817732       0.00239312       0.00534870      -0.00684476
H        2.91745836      -0.03803314      -2.40797813      -0.00328185       0.00502850      -0.00075378
H        1.81784510      -1.05109837      -4.46862362      -0.00462671      -0.00113481      -0.00703728
C        1.62166804       1.98885140      -0.77509840       0.00338038      -0.00104115       0.00382762
C        1.97985216       2.60259386      -1.97967532       0.00341962       0.00043046       0.00120648
H        1.56220123       2.22629004      -2.91451005      -0.00939888       0.00890516       0.00311118
C        2.13727102       2.45836874       0.43876128       0.00388298       0.00291631       0.00568297
H        1.85471158       1.95876425       1.36320913      -0.00684531       0.01222838       0.00622752
C        2.86249945       3.68504142      -1.97660672       0.00288926      -0.00381606       0.00072994
H        3.16023917       4.18041638      -2.90243427      -0.00800316       0.00063962      -0.00307116
C        3.01004084       3.54618917       0.44741483       0.00288430       0.00085461       0.00467602
H        3.42638693       3.93312381       1.37930862      -0.00372832       0.00953826       0.00712488
C        3.36444127       4.14445158      -0.76118096       0.00294884      -0.00277130       0.00047748
F        4.21143401       5.18556647      -0.75429003       0.00154141      -0.00170981      -0.00166064
C        3.76911414      -0.82939351       0.23347822       0.00196809      -0.00256851       0.00218226
C        4.57008147       0.18729274      -0.29991545       0.01182674       0.00550327      -0.00374168
H        4.12004269       1.13130896      -0.59865235       0.00710625       0.00198850       0.00760673
C        4.34974098      -2.03356685       0.64897640       0.00749729       0.00140311       0.00332254
H        3.71463651      -2.80935582       1.07938803       0.00560578       0.01146758       0.01119666
C        5.94543095      -0.00664064      -0.43369364       0.00631898       0.00362565      -0.00183965
H        6.58725322       0.77256508      -0.84871906       0.01127251       0.00966261      -0.00169932
C        5.72509648      -2.23234222       0.51597083       0.00654872      -0.00341737       0.00003539
H        6.20009709      -3.16314274       0.83117712       0.00260958      -0.00749505       0.00618692
C        6.50589270      -1.21598641      -0.02987553       0.00416202       0.00028199      -0.00274418
F        7.82601148      -1.40636897      -0.16772002       0.00157327      -0.00394541      -0.00521890
H       -3.25472258      -0.71714256      -2.37317258      -0.00991731       0.00865823       0.00836380
C       -3.44159980       1.41940935      -1.90406877       0.00079147       0.00055576       0.00084483
H       -2.85768673       2.20843263      -1.40979504      -0.01058985       0.00921902       0.00035108
H       -4.42176839       1.36696697      -1.41245180       0.00712632       0.00990550       0.00325894
H       -1.73465378       0.16935367      -2.40240499      -0.00509911       0.00597442      -0.00812453
H       -3.60622206       1.72086939      -2.95110597      -0.00135079      -0.00821863       0.00167007
C       -4.84204396      -0.56214190       0.37712671      -0.01015654      -0.00247779      -0.00272016
C       -5.82599056      -0.96011923      -0.53322038      -0.01200059       0.00632313      -0.00082958
H       -5.61446632      -1.78332325      -1.21758402      -0.01465173       0.00601439      -0.00106702
C       -5.08801867       0.48175559       1.27574989      -0.00594158       0.00320623       0.00074094
H       -4.31459694       0.77410516       1.98572259      -0.01004940       0.00079355      -0.00037836
C       -7.05618449      -0.30070340      -0.56171599      -0.01232082       0.00689044      -0.00268889
H       -7.84277607      -0.58807684      -1.26232150      -0.01351495       0.00259385      -0.00293321
C       -6.31673741       1.14312986       1.24922746      -0.00805458       0.00611445       0.00284342
H       -6.53577326       1.96314995       1.93563615      -0.01073744       0.00630767       0.00687291
C       -7.28426835       0.74612482       0.32837721      -0.00872666       0.00562051       0.00077687
F       -8.46700269       1.38264437       0.30515095      -0.00956714       0.00533463      -0.00181332
C       -1.36865037       1.06786705       1.72796174      -0.00428691       0.02411740      -0.00205807
C       -0.88486085       2.36863704       1.89790850       0.00312262      -0.00345470       0.00042245
H       -1.06872142       3.10662568       1.11613300      -0.00396651      -0.00663533      -0.00459686
C       -1.16454429       0.10368882       2.72050921      -0.00264280      -0.01633760       0.02044905
H       -1.57804535      -0.89718199       2.60433585       0.00145093       0.00062091       0.01741919
C       -0.16383072       2.70004981       3.04415569       0.00200487       0.00009152      -0.00450842
H        0.22761445       3.70721994       3.19720718      -0.00663394       0.00274998      -0.01324908
C       -0.41274968       0.42449715       3.85305891       0.00178524      -0.00328631       0.01279551
H       -0.21206688      -0.32073220       4.62472362       0.00414636      -0.01002455       0.02320222
C        0.08533110       1.71504412       3.99796698       0.00265806      -0.00821446       0.00021335
F        0.80903527       2.02145011       5.08685471       0.00231036       0.00445144       0.00146523
