54
Properties=species:S:1:pos:R:3:forces:R:3 energy=60.82617950439453 pbc="F F F"
C        1.69603503      -2.51301040      -0.10022972       0.00225240      -0.01961567      -0.00253358
H        1.71019424      -3.19041248      -0.96122505       0.01800894      -0.03955941      -0.00131089
H        2.70469120      -2.18024792       0.15824298      -0.00311633       0.00693852       0.00101786
C        0.78270454      -2.80029316       1.01880531       0.00431993      -0.01467875       0.00255552
H        0.15301604      -3.68689836       0.86675804       0.00617074      -0.02625463      -0.00531889
H        1.22616081      -2.77888001       2.01584235       0.01349215      -0.00854321      -0.00011523
H        0.01884255      -1.74108831       1.31414767       0.00738262      -0.00058701       0.01238984
Rh       0.19000488      -1.00299781      -0.24411479       0.00275327      -0.00729419      -0.01444020
C        2.06710060       1.38715611       1.85393888      -0.00045557      -0.00199698       0.00286521
C        3.46906624       0.33436044      -0.40932808       0.00431595       0.00154078      -0.00002702
C        1.36802685       2.26399305      -0.79306260      -0.00135448       0.00115256       0.00226807
C       -2.04315852       1.43570734      -1.39663219      -0.00878497       0.00144341      -0.00439415
C       -3.31669738      -0.71376406       0.09579129      -0.00735356      -0.00136634       0.00176117
C       -1.80723424       1.33861452       1.53139359      -0.00479926       0.00102648      -0.00155069
P       -1.73606422       0.26553782       0.02314412      -0.00103924       0.00348471      -0.00573668
P        1.72811431       0.69734268       0.15293732       0.00045382      -0.00585421       0.00073082
C       -0.53556853      -1.85484837      -1.75883514      -0.01023602      -0.00936494      -0.02782569
O       -1.05269419      -2.48520789      -2.58279628      -0.00504081       0.00028031       0.01490605
H        1.19728416       2.01220532       2.11558961      -0.00901984      -0.00402863      -0.00143420
C        2.26353196       0.30258109       2.91076806      -0.00093283      -0.00603564       0.00010818
H        3.16383965      -0.30096051       2.71225585       0.01162302       0.00302665      -0.00072004
H        1.40159173      -0.38245926       2.92364997      -0.01217071      -0.00489026       0.00603885
H        2.94103030       2.05911736       1.81364262       0.00821637      -0.00470165      -0.00518903
H        2.37323265       0.73846510       3.91677847      -0.00331112       0.00860176      -0.00363626
H        3.84801940      -0.47389537       0.23503803       0.00326518      -0.00124357       0.00288142
C        3.54963849      -0.07269725      -1.87958639       0.00397473       0.00239324      -0.00243343
H        3.29702777       0.76972609      -2.54306762       0.00313860       0.00746818      -0.00629508
H        2.84108233      -0.88619166      -2.09757636      -0.00029764      -0.01031133       0.00692267
H        4.09985890       1.21368750      -0.20274819       0.00599507       0.00986442      -0.01247991
H        4.56401392      -0.41130869      -2.14385048       0.01229019       0.00422926       0.00662709
H        0.45649515       2.67433268      -0.33131467      -0.00563336       0.00513062       0.00891566
C        2.44865156       3.33955920      -0.87080262       0.00568202       0.00141330       0.00113608
H        3.34767161       2.97918337      -1.39222663       0.00638310       0.00349078      -0.01240316
H        2.75688697       3.68932837       0.12661502       0.00328788       0.01427653       0.00662854
H        1.06731990       1.93090293      -1.79815219       0.00284781       0.00021092      -0.00477321
H        2.07897192       4.21568007      -1.42724879      -0.01070507      -0.00572065       0.00004033
H       -1.55103010       0.95947814      -2.25881856      -0.00259041      -0.00433503      -0.00403028
C       -3.47469297       1.83070581      -1.74712046      -0.01410292       0.00388134      -0.00100667
H       -4.00650777       2.28704577      -0.89980266      -0.01369191       0.01594779       0.00347096
H       -4.06544239       0.96668687      -2.08576503      -0.01091009      -0.00690740      -0.01089412
H       -1.43958754       2.32688758      -1.16793115      -0.00904611       0.00878180       0.00742792
H       -3.46955782       2.56569250      -2.56787720       0.00978840       0.00722323      -0.00315029
H       -3.38766704      -1.22408339      -0.87855833      -0.00644884      -0.00719971      -0.00237194
C       -3.34089995      -1.73274544       1.23151637      -0.00173030       0.00022775       0.00544929
H       -3.30533993      -1.24096405       2.21725464      -0.00729600       0.00413381       0.01187646
H       -2.47469486      -2.40767153       1.16233794       0.00165278      -0.00853626      -0.00455753
H       -4.17673342      -0.02819989       0.16142551      -0.01501670       0.00703704       0.00903290
H       -4.25854941      -2.34147406       1.19715071      -0.01178402       0.00484886      -0.00385184
H       -0.93524481       2.00593849       1.44332081      -0.00183643       0.00421276      -0.01011582
C       -3.07326461       2.15042347       1.79772702      -0.00550767       0.00102841      -0.00276858
H       -3.97128924       1.51454506       1.82932620      -0.00792658      -0.00185035       0.00344720
H       -3.23442627       2.91985563       1.02817640      -0.00272023       0.01164192      -0.00175174
H       -1.57772569       0.67032733       2.37749166      -0.00588464      -0.00365903      -0.00019009
H       -3.00464541       2.66771568       2.76825222       0.01543597      -0.00649764      -0.00260564
