90
Properties=species:S:1:pos:R:3:forces:R:3 energy=48.387332916259766 pbc="F F F"
C       -1.37452226      -2.80344070       2.80275242      -0.00197741      -0.01599100       0.01761930
H       -1.74126805      -2.40417726       3.75012656      -0.01326126      -0.02924532       0.03026284
H       -2.13664764      -3.25727844       2.16366923       0.00377409       0.00056210      -0.00278218
C       -0.04579296      -3.26455512       2.71353676       0.00643494      -0.01386176       0.01092163
H        0.66663162      -3.16874571       3.53286489      -0.00066381      -0.01595913       0.03212971
H        0.14614030      -4.10800275       2.04617778      -0.00868267      -0.00054222       0.00685924
H        0.12639755      -2.46642496       0.76852387       0.00082868      -0.01178411      -0.01583008
Rh      -0.32018394      -1.24636075       1.70413581      -0.01026997       0.00852354       0.01667103
O       -2.59469149      -1.78695355      -0.85141040       0.00922288      -0.00326018      -0.00125200
C       -3.80314127      -0.64542493       1.21527084      -0.00421082      -0.00040864       0.00071794
C       -2.28605928       0.89173919      -0.72461002       0.00557052       0.00435805       0.00793678
O        1.02539717       0.26700026      -0.88843630       0.00178031      -0.00448504      -0.00584497
C        2.21743008       1.32278336       1.49547520      -0.00154677       0.00845717       0.01198254
C        2.95238063      -1.32280932       0.41882525       0.00419129       0.00594098       0.00995450
P        1.46052987      -0.21631856       0.64008379      -0.00807211       0.00541398      -0.00046078
P       -2.17754504      -0.65892818       0.30918175       0.00195068      -0.00362997       0.00349465
C       -0.48991203       0.01565545       3.14248667       0.00033846       0.00741726       0.02218015
O       -0.53584478       0.78081728       4.00440450       0.01246009      -0.01794195       0.00158550
C       -1.62905576      -2.54575550      -1.59135674       0.00488666      -0.01732736      -0.00917738
H       -0.68085742      -2.53255798      -1.02667633       0.01181789      -0.03332663      -0.00363275
C       -1.40764886      -1.90608752      -2.95465241       0.01097287       0.00056626      -0.01599237
H       -1.03781838      -0.87882357      -2.84238392       0.00696841       0.01676184       0.02061339
H       -2.34951350      -1.88081378      -3.52637355      -0.01069769       0.00258121      -0.02003863
H       -0.65864956      -2.47238703      -3.53066659       0.00510964      -0.02963715      -0.00484389
C       -2.14069534      -3.97484034      -1.68192357      -0.01378251      -0.01594522      -0.00711546
H       -2.28594840      -4.39722956      -0.67594624      -0.00699438      -0.00012137       0.01671013
H       -3.10543005      -4.00608789      -2.21399758      -0.00845950      -0.00726263      -0.02317280
H       -1.42365681      -4.60870534      -2.22779505       0.01447400      -0.00597523      -0.00876885
H       -3.64240290      -0.00342029       2.09429872      -0.00009653       0.00874455      -0.00078929
H       -3.90605392      -1.67668268       1.58826298      -0.02258857      -0.00502349      -0.00610321
C       -5.03285405      -0.21397163       0.45549551      -0.00443924       0.00482229       0.00130422
C       -5.55641091      -0.98409641      -0.59802434      -0.00390736      -0.00000369       0.00274300
H       -5.05183411      -1.90875626      -0.87992781      -0.01492555      -0.00968588       0.00545702
C       -5.68833461       0.98010952       0.79394142      -0.00631782       0.00758301       0.00281605
H       -5.29531459       1.59130242       1.60980755      -0.01085457       0.01823607       0.00306034
C       -6.69390321      -0.56462834      -1.29091663      -0.00573343       0.00120301      -0.00031604
H       -7.08671823      -1.17696031      -2.10722985      -0.00293832       0.00265453      -0.00470107
C       -6.82849165       1.39967477       0.10362532      -0.00829897       0.00339155      -0.00062991
H       -7.32340691       2.33137360       0.39015402      -0.00400033       0.00473463      -0.01109192
C       -7.33614132       0.62867919      -0.94436641      -0.00952184       0.00615621      -0.00525547
H       -8.22860513       0.95272071      -1.48611669      -0.00735507       0.00609830      -0.01574393
H       -3.19303364       0.80977968      -1.34075971      -0.00028881      -0.01321181       0.02752863
H       -1.40918633       0.82573799      -1.38629317       0.00314857       0.00066125       0.01273232
C       -2.25973820       2.18542742       0.04726465      -0.00331474       0.00911923       0.00042175
C       -1.17953353       2.48328258       0.89038145       0.00148160      -0.00049881       0.00103267
H       -0.38652528       1.74915522       0.98231137       0.00237881       0.00290956       0.00598915
C       -3.29156512       3.13032546      -0.06116971      -0.00388450       0.00437522      -0.00823470
H       -4.14571398       2.92045083      -0.70844428      -0.00525457       0.01905848      -0.01480487
C       -1.12499334       3.67467863       1.61233957       0.00067614       0.00594549      -0.00029605
H       -0.27544562       3.86720041       2.27284589       0.00009980       0.00417550      -0.00330892
C       -3.23863404       4.33129292       0.65427047      -0.00092974       0.00348650      -0.00159192
H       -4.05114102       5.05571649       0.55480133      -0.00047338       0.00301117       0.00319694
C       -2.15809745       4.60879000       1.49643867       0.00046529       0.00853965      -0.00174284
H       -2.11988008       5.54479226       2.05919527      -0.00346753       0.00520509      -0.00077225
C        1.76657235       1.06218462      -1.83555634       0.00405697      -0.00280092      -0.00350511
H        2.83295942       1.04922223      -1.55853279       0.02854584       0.01109315      -0.01376268
C        1.23767903       2.49328520      -1.80120885      -0.00929912       0.01360968       0.00163680
H        1.30064955       2.92744641      -0.79505086      -0.00074610      -0.00269277       0.02295403
H        0.17832781       2.51389831      -2.09910797      -0.01727938      -0.00262986      -0.01309838
H        1.80417553       3.13800576      -2.49229040       0.01545009      -0.00324402      -0.01378248
C        1.60659280       0.43097191      -3.21332822      -0.00767937      -0.01000748      -0.01456244
H        1.89532066      -0.62711123      -3.19650168       0.01092229      -0.01054013       0.00169653
H        0.56206135       0.50465359      -3.55228314      -0.01992910       0.00507150      -0.01822482
H        2.24040864       0.95346306      -3.94811695      -0.00157230       0.01343259       0.00768308
H        1.96817152       1.15610396       2.55257052       0.00899426       0.01531521       0.01742710
H        1.62236292       2.18417893       1.16439086       0.00330787       0.00400045      -0.00871866
C        3.68845610       1.58353113       1.34973164       0.00010739       0.00626048       0.00315992
C        4.20749739       2.40819853       0.33955238      -0.00334829       0.00936727      -0.00055572
H        3.52640912       2.93034867      -0.33373947       0.00042393       0.01998176      -0.00758936
C        4.59585387       0.96284224       2.22650873       0.00117764      -0.00083157       0.00552979
H        4.20923799       0.32833618       3.02904274      -0.00110914       0.00148474       0.01488922
C        5.58633819       2.58015110       0.19106519       0.00364524       0.00454762       0.00239276
H        5.96713423       3.22718518      -0.60326933       0.00665686      -0.00338008      -0.00257426
C        5.97345590       1.13141773       2.08096752       0.00204233       0.00364504       0.00126827
H        6.65592227       0.62976258       2.77148640       0.00278641       0.00067494      -0.00348563
C        6.47608518       1.93738912       1.05574006       0.00806575       0.00385225       0.00246298
H        7.55401060       2.06974336       0.93708404       0.01175386      -0.00476530      -0.00564087
H        2.79652707      -2.07921011       1.20059186      -0.00341508       0.00798659      -0.00728292
H        3.84988999      -0.75036756       0.67488106       0.02352409       0.00454264       0.00619448
C        3.14630738      -1.96963323      -0.92032645       0.00475809       0.00182207       0.00426026
C        4.10932148      -1.45648880      -1.80144060       0.00650106       0.00766914       0.00651888
H        4.68451198      -0.57485907      -1.50564826       0.01894072       0.00955573       0.00878743
C        2.42353321      -3.10879284      -1.30574948      -0.00281047      -0.00291365       0.00128803
H        1.68138206      -3.52889179      -0.62297585      -0.00184028      -0.01545264       0.00211924
C        4.34623371      -2.06052996      -3.03633335       0.00408214       0.00124000       0.00108620
H        5.10425895      -1.64577610      -3.70539408       0.00214403      -0.00003999      -0.00801837
C        2.66374972      -3.71891821      -2.53899287       0.00061909      -0.00284856      -0.00067102
H        2.11164230      -4.62146277      -2.81382473      -0.00139445       0.00202332      -0.00354411
C        3.62495099      -3.19732450      -3.41018624       0.00535449      -0.00203216      -0.00426144
H        3.82031046      -3.68116145      -4.37019047       0.00015661       0.00079671      -0.01000211
