80
Properties=species:S:1:pos:R:3:forces:R:3 energy=39.36515808105469 pbc="F F F"
C        0.12410112      -3.39389599      -1.48353688       0.01208777      -0.01387552      -0.00489678
H        0.21582655      -4.18210392      -0.73250081       0.00078911      -0.02928621      -0.01985575
H       -0.87639353      -3.28981700      -1.91472313       0.01142029      -0.00477177       0.00599849
C        1.25758267      -2.97652732      -2.19275895       0.00500422      -0.01026044      -0.00819820
H        2.25089028      -3.38212602      -1.99083263       0.00846126      -0.01845371      -0.01139114
H        1.12949922      -2.53367180      -3.18487049       0.00098185      -0.00546106      -0.00848526
H        1.27277580      -0.84940171      -1.85812634      -0.01510043      -0.00442599      -0.00784639
Rh       0.72080471      -1.49142223      -0.50792902      -0.00138679      -0.01254024       0.00313272
C       -1.23803515       0.34562437      -2.73036908       0.01157801      -0.00834361       0.00339807
O       -2.72338172      -1.19807562      -1.28864039       0.00698570      -0.00863832       0.00770473
O       -1.67177099       0.84479205      -0.06087430       0.00555126       0.00107994      -0.00712760
C        0.96894545       1.01610191       1.98439035       0.00669378      -0.00254951       0.00711094
O        3.22707396       0.37613013       0.84839804       0.01200197       0.00546990      -0.00751654
O        1.48452777       1.71521391      -0.60969755      -0.01462873       0.00392183       0.01671125
P        1.61055396       0.40428218       0.38781504       0.00998991       0.00005914       0.00618934
P       -1.25445630      -0.43099019      -1.06987471       0.00750249      -0.00939194      -0.00113007
C        1.22489085      -2.48605515       1.08332814      -0.01042857       0.01788405      -0.01208974
O        1.70019782      -3.02166004       1.99108132       0.02808301      -0.01682571       0.01672151
H       -0.48091754       1.14319308      -2.70516024      -0.01283383      -0.01307066      -0.01915973
H       -0.90527079      -0.42048237      -3.44619661       0.00265382       0.02480754      -0.01852403
H       -2.22019032       0.73378543      -3.02913815       0.02761249      -0.00860833       0.00290762
C       -3.42145506      -1.92097212      -0.34032208      -0.00862050       0.00435437      -0.00721188
C       -2.79166577      -2.73822844       0.60126417      -0.00404233      -0.01378195       0.01070781
H       -1.70346524      -2.79981595       0.62153419      -0.02235211      -0.00949276      -0.00968622
C       -4.82176596      -1.79177505      -0.39117714      -0.01337864      -0.00347958      -0.00203951
C       -5.45429257      -0.89717836      -1.42188961      -0.01160098      -0.00016404      -0.00208672
H       -5.12488224       0.14599735      -1.29368328      -0.00199503       0.00215796       0.00999953
H       -5.16128493      -1.19755057      -2.44077371      -0.00443380      -0.01179204      -0.00157488
H       -6.55070224      -0.92522259      -1.34879088      -0.01542480      -0.00091874       0.00399759
C       -3.56818031      -3.43924165       1.52846980      -0.00684379      -0.00510191       0.00844981
H       -3.07608421      -4.07352265       2.27006521      -0.01987398       0.01997083      -0.01813543
C       -5.57241708      -2.51120723       0.54719588      -0.00565352      -0.00621705       0.00300642
H       -6.66208424      -2.42359829       0.52390938       0.00036719      -0.00463238       0.01339072
C       -4.95983647      -3.32913073       1.50351332      -0.00537431       0.00130548      -0.00497377
H       -5.57001015      -3.87782094       2.22483515       0.00603201       0.00594863      -0.00551060
C       -2.89440949       1.48968777      -0.00954074       0.00080142       0.00296069      -0.00358219
C       -3.25143840       2.41306182      -0.99985632      -0.00219199       0.00229563       0.00615245
H       -2.55750163       2.61528037      -1.81547592      -0.01393035       0.01359597       0.00299160
C       -3.73017290       1.23747819       1.09271324       0.00976195       0.00165933       0.00573790
C       -3.33181304       0.29283248       2.19532002      -0.00056048       0.00539185       0.00367239
H       -4.00044735      -0.58178875       2.22442426      -0.01038278       0.00800221      -0.00607036
H       -2.30798313      -0.07641268       2.05981142      -0.00031791       0.00132295      -0.00674597
H       -3.39689855       0.79382059       3.17520164      -0.00334832       0.00594203       0.00504689
C       -4.48137040       3.06865875      -0.93067977      -0.00769061       0.00715619       0.00595305
H       -4.76152752       3.78173663      -1.70958070      -0.00914386      -0.00986802       0.01439169
C       -4.95833983       1.91466899       1.13884806      -0.00170474       0.01106514      -0.00158755
H       -5.62578046       1.72669326       1.98457106      -0.00498498       0.00630060      -0.01548031
C       -5.34253590       2.81017822       0.13974645      -0.00105659       0.00083083       0.00279916
H       -6.30937313       3.31501425       0.20229949      -0.00297466      -0.00651485      -0.00095018
H        1.07986347       0.20936991       2.72298114      -0.00288422       0.01884301       0.01448916
H        1.52943957       1.90114955       2.31831200      -0.01263028      -0.00466160       0.00388004
H       -0.09469831       1.26074940       1.87052168       0.02105938       0.00176353       0.00014598
C        4.13491103      -0.42788323       0.19190130       0.00777567       0.00773872      -0.00720398
C        4.18306418      -0.47290275      -1.20199850       0.01911999       0.00005159      -0.00893694
H        3.50279172       0.14992037      -1.78137630       0.02632332      -0.00121767       0.01191720
C        4.98265218      -1.21143958       0.99000091       0.01832046      -0.00254039       0.01110967
C        4.87377472      -1.15820270       2.48990636       0.00743163      -0.00272674       0.01288208
H        4.91884701      -0.12089014       2.85833162       0.00635870       0.00946194      -0.00511661
H        3.90946766      -1.57447143       2.82637899      -0.00862106      -0.00961792      -0.00942223
H        5.67939814      -1.73504559       2.96641720       0.01496173      -0.01342340       0.00628730
C        5.08789928      -1.32704908      -1.83245631       0.01234134      -0.00258214      -0.00919801
H        5.11267540      -1.37405335      -2.92360803       0.00214276      -0.00011561       0.02248246
C        5.88936382      -2.05150319       0.33160260       0.00805430      -0.00037397      -0.00235707
H        6.56022555      -2.67259465       0.93120245      -0.00192002      -0.01196394      -0.01010968
C        5.94218693      -2.11998457      -1.06407541       0.00506600       0.00004246       0.00752643
H        6.65054873      -2.79404537      -1.55069703      -0.01245153       0.00205627       0.00418841
C        1.46467483       3.04687871      -0.21924109      -0.01349344       0.00745987       0.00500506
C        0.23087960       3.63188795       0.07314925       0.00481512       0.00599899      -0.00560574
H       -0.66516347       3.01571821       0.03246254       0.00417821       0.02245608      -0.00500494
C        2.65983557       3.78622586      -0.19389906       0.01125012      -0.00309176      -0.01046411
C        3.98413740       3.15256046      -0.51990596       0.00337105       0.00334896      -0.00444802
H        4.30728827       2.47489526       0.28445350      -0.00744983       0.00975963       0.01221977
H        3.92092006       2.54284122      -1.43382365      -0.00085939      -0.00039955      -0.01037535
H        4.75978773       3.91809006      -0.66245214       0.00217483       0.01188771      -0.00317833
C        0.16717479       4.98523974       0.40833849       0.00216950       0.01104944      -0.00587748
H       -0.79902583       5.44265493       0.63479001       0.02334289      -0.00386331       0.00137541
C        2.56306110       5.14500449       0.14256134      -0.00363314       0.01322365      -0.00360995
H        3.47827223       5.74343560       0.16063574      -0.01006420       0.00675070       0.00779590
C        1.33848997       5.74558661       0.44301317       0.00438202       0.00087987      -0.00272701
H        1.30115956       6.80754532       0.69817238       0.00133241      -0.00396236       0.00536361
