76
Properties=species:S:1:pos:R:3:forces:R:3 energy=63.430564880371094 pbc="F F F"
C       -4.32908481      -0.32595150      -0.79185927      -0.01261661      -0.00352378      -0.00915083
H       -4.84361350      -1.25726758      -0.54863193      -0.02822063      -0.00088951      -0.01319870
H       -4.51840423       0.50179417      -0.10940848       0.01184091      -0.01069770      -0.00442005
C       -3.92027020      -0.05232975      -2.09667445      -0.00995324      -0.00171793      -0.00948276
H       -4.07549426      -0.77196252      -2.90359570      -0.03502162      -0.00989891      -0.00864756
H       -3.83249916       0.98755111      -2.42212543      -0.00460165      -0.00088024       0.01120717
H       -1.82413523       0.14441178      -2.13606054      -0.00621640       0.01690101      -0.01075774
Rh      -2.11952167      -0.78860904      -0.84502408      -0.01359483      -0.01304325       0.00335130
O       -0.63189390       1.57713859       1.59361610       0.00263276      -0.00995023      -0.00366100
C       -3.32162102       1.11972081       2.03013489      -0.01042719       0.00174662       0.00981245
C       -1.24903963      -0.79060977       2.66900966      -0.00610749      -0.00394262       0.00454596
O        0.84410656      -1.60354039       0.47210852       0.00346085      -0.00118791      -0.00919428
C        0.60684408      -2.69762124      -1.99171063       0.00061770      -0.00804363      -0.00340717
C        1.16641798       0.15926927      -1.66387395      -0.00146671      -0.00340011      -0.00460668
P        0.10718901      -1.20682404      -1.02087731      -0.00282690      -0.00373601      -0.00023240
P       -1.83096248       0.28490428       1.28897124      -0.00659503      -0.00540990       0.00443926
C       -2.59182733      -2.66151708      -0.98534995      -0.00979448      -0.04168921      -0.00222908
O       -2.83681691      -3.74884499      -1.29498335       0.00525595       0.02539500      -0.01059578
C       -0.18101690       2.42881025       0.63172321       0.00329985       0.00193645      -0.00155389
C       -0.85698300       2.65934421      -0.57536202      -0.00293747       0.00799963      -0.00002376
H       -1.80892017       2.16805358      -0.76596010      -0.01087821       0.00227456       0.00154321
C        1.04899567       3.07041843       0.86015286       0.01156779       0.00271139       0.00548295
H        1.54979817       2.92668162       1.82000418       0.02257956       0.01151322       0.01201494
C       -0.27163566       3.44368527      -1.57185297       0.00041271       0.01066390      -0.00841934
H       -0.77843128       3.57659205      -2.52920122       0.00522138       0.01938283      -0.01392454
C        1.63132404       3.86359775      -0.12960347       0.00799225       0.00573386      -0.00434203
H        2.59475295       4.34818453       0.03884088       0.01046523       0.01099779      -0.00944341
C        0.97964859       4.02302162      -1.35783134       0.00870989       0.01093091      -0.00759055
Cl       1.74507079       4.94418551      -2.64406417       0.01236086       0.01432529      -0.01886182
H       -3.59817799       1.92868879       1.33095097       0.00978762       0.00834522      -0.00272620
H       -4.13703187       0.37885752       1.97818166      -0.00894535      -0.01634654       0.01288039
C       -3.19224210       1.67167134       3.45026418      -0.00258048       0.00647105       0.01205140
H       -2.30865338       2.32831039       3.50934839       0.00581209       0.01619636       0.00698734
H       -3.00767937       0.84194373       4.15272224      -0.01079979      -0.00025449       0.01895649
C       -4.44504759       2.43122832       3.89102984      -0.01360652       0.00803605       0.00326291
H       -4.64422655       3.29163519       3.23007809      -0.00581344       0.01776905      -0.00019885
H       -5.33696880       1.78230110       3.86384411      -0.01680865      -0.00323560       0.00751726
H       -4.34236264       2.81571316       4.91841591       0.00677744      -0.00046525       0.00559042
H       -0.25628655      -1.14143709       2.35792337      -0.00637439      -0.01304414       0.00059028
H       -1.12226726      -0.17744584       3.57479725      -0.00749712       0.00336680       0.00558523
C       -2.16052238      -1.99550286       2.92464651      -0.00320375      -0.00988991       0.00701586
H       -2.34040160      -2.51861421       1.97031746       0.00337503      -0.01309299      -0.00308812
H       -3.15154166      -1.65758516       3.27804141      -0.00814434      -0.00805482       0.01577692
C       -1.55755349      -2.96675919       3.94088459       0.00865326      -0.00788390       0.01086635
H       -0.58953036      -3.35621304       3.58354835       0.01149211      -0.01933907       0.00318417
H       -1.37876984      -2.47662283       4.91252364      -0.00085817      -0.00013370       0.01933957
H       -2.22024447      -3.82985482       4.11608140      -0.00817004       0.00031890      -0.00858860
C        2.17571371      -1.45881474       0.78157456       0.00071332       0.00440565      -0.00091693
C        2.64125060      -0.23997179       1.29471434      -0.00868527       0.01175266       0.00740567
H        1.93400041       0.57546927       1.44340552      -0.01076060       0.02807968       0.02330160
C        3.06470695      -2.53280452       0.63503623       0.00004661      -0.01005975      -0.00103911
H        2.69417064      -3.49328535       0.27313001       0.00797173      -0.02676840       0.00140538
C        3.99241999      -0.07426189       1.60399826       0.00139498       0.00343464       0.01134806
H        4.36386465       0.87807007       1.98719660       0.01255023       0.00653854      -0.00191202
C        4.41685966      -2.37377797       0.95031672       0.00524557      -0.00480094       0.00686689
H        5.11851653      -3.20209964       0.83355622       0.01471145       0.00107221      -0.00031154
C        4.87855652      -1.13955044       1.41798626       0.00522338       0.00063779       0.00717132
Cl       6.57700105      -0.93042140       1.79017290       0.02196005       0.00650640      -0.00135816
H        1.70182201      -2.81401227      -1.93332340       0.00730586      -0.00210197      -0.01352997
H        0.15937577      -3.55597863      -1.46296426       0.00074994      -0.01446119      -0.00257872
C        0.13113371      -2.65272834      -3.44543865       0.00306655      -0.00635103      -0.00909899
H        0.62470367      -1.81293937      -3.96497131       0.01588310      -0.00331320      -0.01043978
H       -0.94654790      -2.42235035      -3.45590489      -0.00617080      -0.00857346       0.00118203
C        0.40023797      -3.95550646      -4.19666884       0.00598567      -0.01632714      -0.00763680
H        1.47462943      -4.20465549      -4.20374545       0.01691374      -0.01237221      -0.01181293
H       -0.13502198      -4.79717886      -3.72647099      -0.00639705      -0.01720002      -0.00146514
H        0.06320294      -3.88686342      -5.24324431      -0.00147121       0.01389190      -0.00317460
H        0.54288192       0.64397651      -2.42868955      -0.00358793      -0.00133538      -0.00320068
H        1.22731199       0.88813832      -0.84335087       0.00565795      -0.01271214       0.00493985
C        2.56432296      -0.13305790      -2.21455003       0.00396365      -0.00141190       0.00279194
H        2.48856766      -0.78284140      -3.10218837       0.00533303       0.00393306      -0.00467357
H        3.16940467      -0.68477785      -1.48027788       0.02039895       0.00086228       0.00155794
C        3.27593678       1.17050565      -2.58229571      -0.00204398       0.00881187       0.00528879
H        2.68247199       1.76511426      -3.29612994      -0.00445234       0.00895223      -0.00759071
H        3.42682981       1.80038599      -1.69083586       0.00913938       0.01208383       0.00862718
H        4.26134340       0.97821686      -3.03511787      -0.00405178      -0.01138240      -0.00023960
