64
Properties=species:S:1:pos:R:3:forces:R:3 energy=68.75413513183594 pbc="F F F"
C        0.55687764      -2.73212534       2.05771467      -0.02508461       0.00431639       0.02731303
H        0.73340476      -3.64945168       1.48787077      -0.01698110      -0.01541606       0.00954388
H        1.41361513      -2.40964408       2.65646073       0.00552550       0.00755125       0.00667268
C       -0.76229342      -2.40449985       2.43827148       0.01294401      -0.01419322       0.02132407
H       -1.59945894      -3.06188972       2.19632412       0.01358075      -0.03618178       0.01475624
H       -0.91027212      -1.78006596       3.32307765       0.03860291      -0.02254388       0.01027572
H       -0.35395825      -0.13397740       1.91095661      -0.01862010       0.00994758       0.02539755
Rh      -0.12175619      -1.13624200       0.70474959      -0.00380465      -0.00138583       0.00493424
C        2.36967912       0.62246720       2.37406428       0.01029698      -0.00621330       0.02917526
O        3.28635342      -0.60772489       0.26534785       0.01308751      -0.00338536       0.00481208
O        1.78171337       1.47677501      -0.16361249      -0.00430125       0.01167639       0.00331916
C       -0.83174014       0.88949609      -2.04890598       0.00564010       0.00627438      -0.03962220
O       -2.97375273       0.00663683      -0.91298740      -0.00744428       0.00162681      -0.02463594
O       -1.61538674       1.78153735       0.43758643      -0.00989362       0.00725676       0.00095580
P       -1.44617531       0.38927772      -0.38710360      -0.00715789       0.02042078      -0.00796190
P        1.83761556       0.06425216       0.70535487       0.01358833       0.00230459       0.00625658
C       -0.31907334      -2.43398002      -0.71726516      -0.00643896      -0.02736266      -0.02813521
O       -0.54656410      -3.18531725      -1.56217561       0.00418831       0.01406669       0.03174366
H        1.61025164       1.31988889       2.75539148      -0.02924990       0.00500417      -0.00646356
H        2.39085586      -0.25955733       3.03073357       0.00049844      -0.03755976       0.01412694
H        3.36242213       1.09408530       2.37052882       0.00971317       0.00314148      -0.02151858
C        3.35002780      -1.57973661      -0.79608301       0.01290888      -0.00422909      -0.00258716
H        2.34623697      -1.66328143      -1.25033558       0.00978756      -0.00162561      -0.00683664
C        3.72604731      -2.92784897      -0.19719739       0.00592500      -0.01059456      -0.00280316
H        2.96707615      -3.24594782       0.53199426      -0.00748756       0.00382503       0.00943949
H        4.69839689      -2.86165494       0.31771520       0.01424279      -0.00489656       0.00372838
H        3.79689558      -3.69702824      -0.98283888       0.00606716      -0.00191374      -0.02072914
C        4.33773041      -1.07737946      -1.83721305       0.01417549       0.00289656      -0.00785158
H        4.00916212      -0.11024898      -2.24577460      -0.00293672       0.00935137      -0.00130337
H        5.33326870      -0.93984597      -1.38534212       0.01591158      -0.00515225       0.00324976
H        4.42509499      -1.79310930      -2.66958459      -0.00322453      -0.01592246      -0.00821292
C        2.89069435       2.38574087      -0.28716189      -0.00446281       0.01111575      -0.00023910
H        3.81204382       1.85911676       0.01708513       0.00460229       0.01768894      -0.00128340
C        2.66802676       3.60194646       0.60382293      -0.00145467       0.00956935       0.00715421
H        2.56510310       3.31400085       1.65938487       0.00115311      -0.00319253       0.01031225
H        1.75099290       4.13104892       0.30241241      -0.00442485       0.01000563      -0.00266428
H        3.51591616       4.30062467       0.52022939       0.00654905       0.00071593      -0.01622188
C        3.00216355       2.75816777      -1.75933219      -0.00459030       0.00262590      -0.01002646
H        3.10677127       1.85584059      -2.37929856      -0.00166005      -0.01716471      -0.00462273
H        2.09772590       3.29568904      -2.08777759      -0.01181419       0.00708019       0.00101046
H        3.87434157       3.40720241      -1.93539423       0.00737205       0.00323684       0.01757216
H        0.17568283       1.30876547      -1.93036044       0.01613347       0.00517928       0.01262830
H       -0.77830843      -0.01876426      -2.66688389       0.00113476      -0.01195425      -0.04655506
H       -1.50530547       1.60837372      -2.53830733      -0.02093858       0.01672713      -0.01384464
C       -3.78167364      -0.95759650      -0.21692590      -0.00867173      -0.00269134      -0.00957457
H       -3.10285260      -1.70130020       0.23894271      -0.01003131      -0.00873526      -0.00285437
C       -4.65185838      -1.63455958      -1.26380161      -0.01014173      -0.00701099      -0.00774251
H       -4.02384627      -2.11399883      -2.03009179       0.00979625       0.00015158      -0.00153309
H       -5.30423838      -0.89869936      -1.76179651      -0.01631099       0.00163695      -0.00285731
H       -5.28670300      -2.40642636      -0.80072151      -0.00869510      -0.00170624       0.01896756
C       -4.56968029      -0.26829701       0.88757382      -0.00845281       0.00102421       0.00341909
H       -3.88222822       0.19455871       1.61178103       0.00896445       0.00386785       0.00181392
H       -5.21521009       0.51903218       0.46453401      -0.01123557       0.00373113      -0.00241548
H       -5.20429294      -0.98976820       1.42569867      -0.00731931      -0.01470901      -0.00116391
C       -2.28959161       2.95509291      -0.04945202       0.00209079       0.00630454       0.00584835
H       -2.91659079       2.67590826      -0.91430658       0.00521594       0.01789715      -0.00438268
C       -1.24928994       3.98549150      -0.46942496       0.00684816       0.00411771      -0.00151423
H       -0.60229231       3.59735157      -1.26873005       0.00504978      -0.00969520      -0.01010969
H       -0.60980519       4.24275226       0.38921045      -0.00318408       0.00327776       0.01082085
H       -1.73650963       4.90495161      -0.83135029      -0.01419361      -0.00169470       0.00604347
C       -3.18500442       3.44385034       1.07859758       0.00038092      -0.00340373       0.00940328
H       -3.92085371       2.67230066       1.34602293      -0.00513678      -0.01169266       0.00064487
H       -2.57511395       3.66109166       1.97005302       0.01056201       0.00377100       0.00767054
H       -3.72217169       4.36004927       0.78770240       0.01532902       0.00072794      -0.01872499
