68
Properties=species:S:1:pos:R:3:forces:R:3 energy=51.310543060302734 pbc="F F F"
C        1.22934863      -3.36662701       0.31948364      -0.00268961      -0.01851084       0.00884837
H        0.57513018      -4.11275689      -0.13645948       0.00013925      -0.02865950      -0.00131354
H        2.15590190      -3.17893135      -0.22508130      -0.00421233      -0.00136323       0.00073668
C        1.17353318      -3.11977183       1.69400460       0.00240318      -0.01468699       0.00909086
H        0.45989546      -3.63190567       2.34293844      -0.00568999      -0.03006975       0.00479961
H        2.07152739      -2.75531371       2.20057127       0.00836504      -0.01068249      -0.00873701
H        0.69897842      -0.95078785       1.85214142       0.01602056       0.00278462       0.00445022
Rh       0.04546749      -1.49323984       0.48904798       0.00026770      -0.01291080       0.00043589
C        2.51534682       1.13725856      -0.36177601      -0.00129394      -0.00314807      -0.00005987
C        2.86652636      -1.26668482      -1.88753451       0.00125047      -0.00475487      -0.00237407
C        0.64716472       0.43646648      -2.52077983      -0.00788247      -0.00046445      -0.00638378
C       -2.74809621       0.65948631      -0.32926146       0.00013875      -0.00440526      -0.00609214
C       -2.27183884       0.18930594       2.55084140      -0.00342761      -0.00139982       0.00212792
C       -0.57310011       2.00213554       0.95988117       0.00219480      -0.00559843       0.00495362
P       -1.38162245       0.32111859       0.92578028      -0.00263543      -0.00216700      -0.00109636
P        1.51675765      -0.28526904      -1.02141394       0.00082709       0.00160700       0.00129053
C       -1.55321578      -2.53626357       0.24640510      -0.02163323      -0.00782251      -0.00393873
O       -2.53193968      -3.13789332       0.41144942       0.00984688       0.00412613       0.01113781
C        2.39172096       2.42997637      -0.90393919      -0.00120100      -0.00367068      -0.00138790
H        1.73520176       2.60583893      -1.75448497      -0.00138658       0.00100147      -0.00301882
C        3.36411417       0.96109155       0.76406713       0.00397675       0.00019318       0.00892412
C        3.53082583      -0.36604546       1.45282931      -0.00388279       0.00691982      -0.00107544
H        4.14509214      -1.07027713       0.86883211       0.01104310       0.01176553      -0.01322169
H        2.54687191      -0.83288004       1.60540790       0.00943374       0.02181270       0.01236552
H        4.00870118      -0.24167573       2.43539852       0.02145375       0.02000564       0.00334942
C        3.07649045       3.52513268      -0.37273044      -0.00003485      -0.01210320       0.00385519
H        2.95700848       4.51318899      -0.82495874       0.00150409      -0.01532804       0.01298853
C        4.03965358       2.07515872       1.28607341       0.00120890      -0.00508239       0.00327519
H        4.67233034       1.93397015       2.16708001       0.00233822       0.00710627       0.00129679
C        3.90890246       3.34826498       0.73193055       0.00355743       0.00015169       0.00624235
H        4.44731423       4.19476719       1.16636335       0.00061316       0.00084215       0.00465075
H        3.49381329      -1.70189949      -1.09410004       0.00438832      -0.00533801       0.00709605
C        2.34697315      -2.36746499      -2.81576442       0.00066242      -0.00594532      -0.01045194
H        1.86962585      -1.95338193      -3.71577224       0.00094000       0.00187125      -0.01471702
H        1.60130197      -3.00090448      -2.31456491      -0.00091334      -0.01085477       0.00015992
H        3.51101560      -0.55982017      -2.43398428      -0.00417225       0.00281829      -0.00935026
H        3.17418895      -3.01430548      -3.15142957       0.01585946       0.00192199      -0.00455066
H        0.00043906       1.24635930      -2.14650790      -0.00304463       0.00995073       0.00508142
C        1.46401778       0.88605580      -3.73748291       0.01122514      -0.00063107      -0.00694460
H        1.92340577       0.03165818      -4.25504765      -0.00183940      -0.00804795      -0.01994741
H        2.27502624       1.58261993      -3.48117850       0.01397152       0.01599517      -0.00618899
H       -0.05241929      -0.35683919      -2.82226879      -0.01132082      -0.00602117      -0.00418880
H        0.80939936       1.38988126      -4.46848476      -0.00969384      -0.00357237       0.00756667
C       -2.65699798      -0.05434284      -1.53832371      -0.00636811       0.01412661       0.00831738
H       -1.85415378      -0.78407349      -1.64464002       0.00172921       0.00443539       0.00377837
C       -3.81541143       1.58957696      -0.17573660      -0.01769516       0.01381649       0.01515029
C       -4.09030854       2.40034709       1.07075249      -0.01018723       0.00462318      -0.00167451
H       -3.19167079       2.86792356       1.49285580       0.00782693       0.00344242      -0.02002827
H       -4.53481070       1.77621227       1.86195592      -0.00802506      -0.01537174      -0.00420569
H       -4.80713730       3.20449066       0.84826623      -0.01587737       0.00639746      -0.01721247
C       -3.56959161       0.12050544      -2.58174392       0.00605886      -0.00337266      -0.00502950
H       -3.46664093      -0.45987308      -3.50206512      -0.01047780       0.01175701       0.00557488
C       -4.71916576       1.75280728      -1.24213210      -0.01161481      -0.00095382      -0.01259868
H       -5.53997001       2.46688910      -1.12472896      -0.01238666       0.00118169      -0.00989562
C       -4.61029653       1.03538646      -2.43367386      -0.02532758       0.01497763      -0.00038120
H       -5.34036442       1.18948900      -3.23353723      -0.00610813       0.00263667       0.00016232
H       -3.18869498      -0.38387032       2.33867189      -0.00827917      -0.00756980       0.01133783
C       -1.44799508      -0.51447113       3.62829426       0.00479617       0.00136581       0.00228846
H       -0.51621937       0.02880139       3.84691474       0.01511100       0.01319273       0.01172625
H       -1.15925514      -1.52097453       3.29614324      -0.01033838      -0.00787810       0.00262698
H       -2.57647618       1.19001773       2.88725319       0.00951413       0.01002868       0.00985354
H       -2.02616201      -0.59407010       4.56266308      -0.01365171       0.01083570       0.00479209
H       -1.35899348       2.77162987       0.95084284      -0.01165937      -0.00855469       0.00924288
C        0.38951963       2.23325613       2.12021803       0.00175618      -0.00153390       0.00500696
H        1.10955155       1.40935106       2.21074082       0.00870391      -0.00615385       0.00019862
H       -0.14824180       2.32285788       3.07734253      -0.00156270       0.01369776       0.01070136
H       -0.04633731       2.09955177       0.00119223       0.00072029      -0.00369300       0.00121780
H        0.96222262       3.16107674       1.96439274      -0.00494818       0.00372004      -0.01244044
