58
Properties=species:S:1:pos:R:3:forces:R:3 energy=42.29513168334961 pbc="F F F"
C       -3.02861820      -1.34757492      -0.84481831      -0.01140709      -0.00524670      -0.01028145
H       -3.46422478      -2.34872011      -0.87970763      -0.02845859      -0.00736739      -0.02196982
H       -3.57900303      -0.64162344      -0.21718430      -0.00970795      -0.00177772      -0.00018003
C       -2.34981766      -0.83320849      -1.98877722      -0.00926282       0.00060602      -0.00930875
H       -2.18439563      -1.49351092      -2.84452643      -0.01485360      -0.00753352      -0.01625133
H       -2.48600131       0.21766482      -2.25763477      -0.01277746      -0.00239257       0.00030809
H       -0.91427279      -0.18339986      -1.36164491      -0.00681372       0.01060740      -0.00301463
Rh      -0.91300674      -1.47652089      -0.36085385      -0.00536099      -0.01963301       0.00800979
O       -2.13391951       1.04024083       1.66477557       0.00857602      -0.00553148      -0.00478531
C       -2.46833505      -1.33542910       2.74973100      -0.00461846       0.00152597       0.00634780
C        0.04223912      -0.04648395       2.84792598       0.00821031      -0.00918497       0.00325041
O        1.95705474       0.10248864       0.26629978       0.00003751       0.00344559      -0.00665204
C        2.25792587      -2.62728969       0.48426941       0.00947741      -0.01351804       0.01005969
C        2.24669314      -1.36920457      -2.06020445       0.00963660      -0.00993458      -0.01776264
P        1.36659880      -1.30673042      -0.44848839       0.00079477      -0.00760958       0.00089694
P       -1.30579817      -0.42914055       1.64404827       0.00014060      -0.00827577      -0.00395001
C       -0.92116008      -3.38148650      -0.59984103      -0.00016642      -0.02544600      -0.00559714
O       -0.94600502      -4.50076848      -0.89105282       0.01072249       0.01384710      -0.00802275
C       -2.09562630       1.91483066       0.61019581       0.00195822       0.00569083      -0.00246855
C       -0.88907330       2.29700793       0.01509697       0.00767989       0.01234676       0.00048258
H        0.05126742       1.88757505       0.38546683       0.00929481       0.01289308       0.00343285
C       -3.32639258       2.42120093       0.15096957      -0.00194196       0.00242935       0.00159054
C       -4.60680298       2.00600427       0.82335478      -0.00330266       0.00435973       0.00269194
H       -5.47244102       2.51565385       0.37599025      -0.00262887       0.00701030      -0.01028184
H       -4.76913334       0.91850909       0.74091279       0.00488706      -0.00097179      -0.00516651
H       -4.58248772       2.23386810       1.90092694       0.00182089       0.01071339       0.00451902
C       -0.89842024       3.18503097      -1.06358860       0.00381624       0.01216486      -0.00362222
H        0.04639807       3.48033275      -1.52575768       0.00600655       0.01125987      -0.01115954
C       -3.30675273       3.30919511      -0.93231009      -0.00637633       0.00203133      -0.00068110
H       -4.25540379       3.70781807      -1.30286467      -0.00686198       0.00173259      -0.00741654
C       -2.10815891       3.69002491      -1.54403234      -0.00592127       0.00441485      -0.00198514
H       -2.12047528       4.38132532      -2.38997459      -0.00667833      -0.00157161      -0.00656969
H       -1.99086433      -2.28227530       3.04434379       0.00240801       0.00372216       0.00736411
H       -2.72162022      -0.74617813       3.64455953       0.00569934       0.00345269       0.00809130
H       -3.38307818      -1.57200540       2.18878416      -0.01199112      -0.00197926       0.01423117
H       -0.36083182       0.48157407       3.72542585      -0.00533102      -0.00953704       0.00201133
H        0.50584660      -0.99295076       3.16807304       0.00822520      -0.01868758       0.00266471
H        0.81051749       0.56310810       2.35630879      -0.00033422      -0.00149827      -0.00509669
C        3.28022040       0.49118130       0.24612285       0.00073089       0.00347786       0.00079340
C        4.15809394       0.01030454       1.22613673      -0.00206886       0.00067675       0.00389380
H        3.78068919      -0.67768775       1.98351955       0.00308578       0.00338985       0.01402865
C        3.71037093       1.42124455      -0.71739080      -0.00554291       0.00645986      -0.00266930
C        2.76526056       1.98145222      -1.74646726      -0.00651256       0.00517562      -0.00495302
H        3.01528957       1.61642675      -2.75666494       0.02313119      -0.00908233       0.00373154
H        1.72585079       1.70452866      -1.53263035      -0.00994089      -0.00559546       0.01201840
H        2.83139304       3.08086383      -1.77586109       0.00959228       0.01800483       0.00062287
C        5.49134588       0.42055866       1.23515111       0.00226239       0.00633637       0.00213536
H        6.17428927       0.03950751       1.99843424       0.00597531       0.00196861      -0.00180484
C        5.05523791       1.82058483      -0.68265285      -0.00025621       0.00950299      -0.00062842
H        5.40629221       2.54313888      -1.42517324       0.00880782       0.00384657      -0.00204555
C        5.94441637       1.32515635       0.27112398       0.00420202       0.00835781       0.00046914
H        6.98682141       1.65307547       0.26860285       0.01223352       0.00022907      -0.00795630
H        1.94149370      -2.58615436       1.53620701       0.00189121       0.00741288       0.01250671
H        1.94082091      -3.59618280       0.07104063       0.00486859      -0.01805299      -0.00384422
H        3.35083429      -2.53240048       0.41427732       0.01910165       0.00575761      -0.00215043
H        3.32981908      -1.21042330      -1.94587483       0.01364520       0.00271078       0.00809067
H        2.06469623      -2.36755076      -2.48606963       0.00713078      -0.02112995      -0.01293800
H        1.82551826      -0.61961831      -2.74250614      -0.00185509       0.01777121      -0.00690815
