98
Properties=species:S:1:pos:R:3:forces:R:3 energy=98.67708587646484 pbc="F F F"
C        1.19730348       0.51274998      -3.49450054      -0.00032138      -0.00522805      -0.00551110
H        1.24911143       1.57513260      -3.74837248      -0.01178547      -0.00878023      -0.00324010
H        2.16503509       0.00856567      -3.47523735       0.00520056      -0.00326747      -0.00671453
C        0.03049709      -0.20847067      -3.79453737       0.00199657      -0.00484629      -0.00422728
H       -0.81989316       0.26389089      -4.28943516       0.00914138       0.01254307      -0.00647333
H        0.12031821      -1.28440908      -3.97056458       0.00217830      -0.00266210       0.00166568
H       -0.04606073      -1.28261521      -1.81370513      -0.00543583      -0.00485533      -0.00628049
Rh       0.15161757       0.27248208      -1.56176891       0.00566092       0.00232683       0.00381102
O        2.41772843      -2.03002881      -0.20915849      -0.00483539       0.00598312      -0.00103857
C        3.69765102       0.05935576      -1.18151215       0.00580198       0.00023622      -0.00152240
C        2.30694058       0.18721039       1.34535819       0.00395729       0.00303674       0.00268850
O       -0.78377836      -0.67022827       1.57208762      -0.00330820       0.00261652       0.00234451
C       -2.37728429       1.36736781       0.70720128      -0.00170541       0.00217439      -0.00350600
C       -2.69541920      -1.31107693      -0.36061007      -0.00432751       0.00313890      -0.00276886
P       -1.40927445      -0.08899543       0.12462157      -0.00035020       0.00294508       0.00764786
P        2.10243751      -0.40007122      -0.39033097       0.00123675       0.00126032       0.00079638
C       -0.07713953       2.18107150      -1.51914334      -0.02355680       0.04229203      -0.01500347
O       -0.31891903       3.31096625      -1.56373458       0.01299480      -0.05750917       0.01570050
C        1.38609701      -2.96107429       0.15305598      -0.00299734      -0.00045683      -0.00760487
H        0.48991091      -2.40078083       0.46411287       0.00093421      -0.00909699      -0.02007167
C        1.88853018      -3.77643765       1.33826415      -0.00049929       0.00465322      -0.00740707
H        2.12894306      -3.11963697       2.18829017       0.00143395       0.00151564      -0.00569147
H        2.80015827      -4.33209619       1.06440353      -0.00238492       0.00649375      -0.00791167
H        1.12527900      -4.50223511       1.66324510      -0.00212162       0.00947235      -0.01542374
C        1.04322339      -3.82983581      -1.05040420      -0.00250908      -0.00488980       0.00011428
H        0.67418546      -3.20157919      -1.87415380       0.00284910      -0.01355323      -0.00390510
H        1.93496023      -4.37603611      -1.39674491      -0.00553674      -0.00157280       0.00354112
H        0.25952812      -4.56181204      -0.79397227       0.00368017      -0.00089021       0.01064953
H        3.66193099      -0.36483855      -2.19691926      -0.00692666      -0.00578103       0.00427928
H        3.66009407       1.15500506      -1.31156022      -0.00468683       0.00445975       0.00051642
C        4.97420892      -0.38531014      -0.47841732       0.00821401      -0.00210774      -0.00515206
H        5.05586155       0.10502102       0.50708406       0.00526161      -0.00675537      -0.00442078
H        4.91313655      -1.46824812      -0.28056005       0.00922008       0.00663224       0.00906528
C        6.22151761      -0.07227028      -1.30156612       0.01223538      -0.00207860       0.00186284
H        6.26353066       1.01423701      -1.50560512       0.00465230      -0.00623662       0.00196859
H        6.13234103      -0.55833079      -2.29136644       0.00737978       0.00347686       0.00304198
C        7.51928243      -0.51896163      -0.63264864       0.01010870      -0.00034941      -0.00506385
H        7.60251399      -0.03021907       0.35539866       0.01241720      -0.00546556      -0.00644361
H        7.46178958      -1.60343072      -0.42611365       0.01387665       0.00424437      -0.00151819
C        8.76027815      -0.21482208      -1.46829799       0.00638321       0.00046742       0.00027303
H        9.68290175      -0.54659569      -0.96636267      -0.00319266      -0.00057708       0.00381263
H        8.85247806       0.86735971      -1.66124937       0.00897668      -0.00505071      -0.00148031
H        8.71079455      -0.71964989      -2.44789322       0.00796099       0.00406028       0.00283484
H        1.49656244      -0.29833132       1.90813729       0.00401686      -0.00226676       0.00032337
H        3.26621904      -0.17679868       1.74564742       0.00927218       0.00369829      -0.00717006
C        2.17993282       1.70442481       1.46191459       0.00033851       0.00565962       0.00210883
H        2.96811862       2.19833304       0.86395506       0.00064155       0.00657316       0.00284639
H        1.22529024       2.01955574       1.00679243       0.00362194       0.01024852       0.00024304
C        2.24972291       2.21004190       2.90092668       0.00052674       0.00540512       0.00293740
H        3.22026496       1.92409768       3.34734630      -0.00097083       0.00510326      -0.00113021
H        1.47847937       1.69377027       3.49963495       0.00400996       0.00502492       0.00376619
C        2.05437818       3.72113548       3.02013417      -0.00081580       0.00320611       0.00509176
H        2.82628241       4.23677903       2.42034384      -0.00469143       0.00500693       0.00491983
H        1.08729353       3.99555828       2.56041707       0.00187204       0.00352489       0.00762112
C        2.10031864       4.21812974       4.46347464       0.00101040       0.00289051       0.00097613
H        1.95056231       5.30760287       4.52795841       0.00074819      -0.00016555      -0.00629191
H        3.07012239       3.98360885       4.93414413      -0.00442368       0.00231755       0.00385968
H        1.31666921       3.73584597       5.07268759       0.00381798       0.00209491       0.00082885
C       -1.52029992      -0.87750994       2.79503470       0.00612249      -0.00134412      -0.00058088
H       -2.58861310      -0.67554132       2.62111321       0.00668295      -0.00387399       0.01563623
C       -1.02964085       0.09014349       3.86736716       0.00384917      -0.00402311      -0.00244176
H       -1.15323989       1.13586380       3.54936809       0.00540877      -0.00332403       0.00017945
H        0.03392731      -0.08046678       4.09511970       0.00133029      -0.00411556      -0.00220191
H       -1.60301822      -0.05380733       4.79854855       0.00199297      -0.01633284      -0.00755139
C       -1.36655481      -2.33433974       3.21610965       0.00384423       0.00368163      -0.00128712
H       -1.73827597      -3.01021087       2.43177174       0.00411607      -0.00126561       0.00367953
H       -0.30716315      -2.57256745       3.39807761      -0.00068753       0.00199326       0.00253960
H       -1.93151227      -2.53267440       4.14159673      -0.00188707       0.02379852      -0.00829903
H       -2.94363513       1.11565790       1.61888491       0.00109188      -0.00578074      -0.00324925
H       -1.63630971       2.13022549       0.99909113      -0.00664918       0.00424275      -0.00026014
C       -3.31387703       1.90613740      -0.37156589      -0.00697737       0.00362947      -0.00011184
H       -2.79885288       1.88127743      -1.34619437      -0.01170807       0.00452321      -0.00181467
H       -4.18361730       1.23287486      -0.46949867      -0.00882477       0.00542800      -0.00092044
C       -3.79524101       3.32714279      -0.09680730      -0.00607181       0.00455551      -0.00333730
H       -2.91469403       3.98879953      -0.00830160      -0.00666705       0.00111334      -0.00099016
H       -4.31106102       3.36688140       0.88114171      -0.00408147       0.00742332      -0.00662033
C       -4.71868010       3.85298740      -1.19349119      -0.00384131       0.00591120      -0.00181064
H       -4.18882117       3.79093727      -2.16108520      -0.00830999       0.00565970      -0.00165908
H       -5.59323876       3.18265823      -1.28443711      -0.00411401       0.00871404      -0.00638368
C       -5.18117533       5.28607117      -0.94678307      -0.00298943       0.00204466      -0.00339904
H       -5.83757361       5.64848082      -1.75359814      -0.00174914      -0.00480704      -0.00447713
H       -4.31946849       5.97108943      -0.88031162      -0.00337614       0.00055616       0.00162852
H       -5.73859869       5.36456873       0.00198577       0.00167433       0.00293188      -0.00332149
H       -3.02349811      -0.93506715      -1.34427874      -0.00335842       0.00254557      -0.00647777
H       -2.13308861      -2.23371884      -0.57964052       0.00894041       0.01697024       0.00955983
C       -3.89995937      -1.59420150       0.53021197      -0.00313759      -0.00201913      -0.00237546
H       -3.58649121      -2.11730443       1.44698503      -0.00177282      -0.00206678      -0.00389954
H       -4.37179907      -0.65166015       0.85748154      -0.00078125      -0.00567314       0.00548933
C       -4.93673484      -2.44919504      -0.19300316      -0.00359339      -0.00333988       0.00123424
H       -4.45283927      -3.37825936      -0.54690253      -0.00470916       0.00037521       0.00176196
H       -5.26787281      -1.91873248      -1.10515989      -0.00257822      -0.00386355       0.00253487
C       -6.14816830      -2.79760425       0.66699060      -0.00310318      -0.00439001      -0.00395487
H       -5.80390493      -3.32211422       1.57727068      -0.00763451      -0.00436944      -0.00458325
H       -6.62165045      -1.86273342       1.01921522      -0.00289312      -0.00764574      -0.00258569
C       -7.17101940      -3.65475240      -0.07393196      -0.00211093      -0.00171503      -0.00057418
H       -8.03747341      -3.90002478       0.55946751       0.00286602       0.00575119       0.00531264
H       -6.71835815      -4.60299442      -0.40956872      -0.00448389       0.00008767      -0.00231802
H       -7.54428696      -3.13398063      -0.97167995      -0.00034262      -0.00604655      -0.00036760
