76
Properties=species:S:1:pos:R:3:forces:R:3 energy=37.610416412353516 pbc="F F F"
C        0.35277025      -2.95750635       2.95438847      -0.00570492      -0.01045766       0.01484404
H        0.51710501      -4.03061797       2.82112728       0.00037244      -0.01664882       0.03223222
H        1.23032969      -2.41999644       3.32939132      -0.00193647      -0.00074366       0.00610861
C       -0.94725637      -2.48987625       3.26906457      -0.00415032      -0.00039450       0.00893444
H       -1.78741760      -3.17923068       3.36780528      -0.00966192      -0.00493194       0.01404586
H       -1.04024730      -1.58289306       3.87395315       0.00807209      -0.00348381       0.00324951
H       -0.44963043      -0.72916184       1.96290841       0.00522449       0.00264773       0.00238641
Rh      -0.42585797      -2.07058031       1.13746474       0.00297066      -0.01832502      -0.00123280
C        2.29566287       0.08283837       1.70250103      -0.00277515      -0.00506123       0.00421604
C        2.97237080      -2.53028270       0.60410866       0.00331113      -0.00083950       0.00203577
C        2.03613429      -0.32291654      -1.16482277      -0.00095966       0.00068162       0.00844928
C       -2.22617647      -2.09783312      -1.96539118      -0.00332920      -0.00325549      -0.00733151
C       -3.70483345      -0.88983222       0.23217298      -0.00644046      -0.00069134      -0.00383951
C       -1.66420895       0.53737992      -1.25678879       0.00167949      -0.00765659       0.01125925
P       -1.96640782      -1.10663215      -0.41727472      -0.00188815      -0.00946479      -0.00399081
P        1.67904507      -1.17009105       0.49154845      -0.00460041      -0.00687930       0.00652157
C       -0.82198824      -3.82816138       0.45504789      -0.02245009      -0.03257421       0.00124622
O       -1.19234953      -4.88618745       0.17948690       0.00329446       0.02040520      -0.00474459
H        1.62935670       0.95545055       1.66416219      -0.00562983      -0.00374703      -0.00130685
H        2.23896980      -0.35083333       2.71146822       0.00786798      -0.00346534       0.00803612
H        3.31968068       0.41739401       1.48979993      -0.00601583      -0.00423397      -0.01394482
H        2.89833226      -2.87745934       1.64578217       0.01547534       0.00175299      -0.00006985
H        2.57546003      -3.34107652      -0.02356161       0.01345117      -0.00224746      -0.00093748
C        4.37951591      -2.18679881       0.22865394       0.00328579      -0.00351027      -0.00099243
C        4.87286666      -2.49700743      -1.04891358       0.00165603      -0.00767223      -0.00681022
H        4.23372268      -3.03771330      -1.75203109       0.00326911      -0.01308983      -0.02017993
C        5.22991215      -1.51644854       1.12379918       0.00354419      -0.00459342       0.00453077
H        4.87712185      -1.28404973       2.13092418       0.01068295      -0.00391990       0.01471378
C        6.16529794      -2.13710930      -1.43719330       0.00648157      -0.00297986      -0.00129712
H        6.55311205      -2.37716872      -2.42862147       0.00521952       0.00686817      -0.00037422
C        6.51927886      -1.13719728       0.75005559       0.00467428      -0.00160976      -0.00223374
H        7.18222367      -0.60995851       1.43845153       0.00221785       0.00588305      -0.00520891
C        6.96943288      -1.44880197      -0.53189439       0.00831691      -0.00112858      -0.00227018
F        8.20951718      -1.09058581      -0.89789748       0.00458281       0.00473312      -0.00364392
H        2.57752263      -1.05819843      -1.77823514       0.00054270       0.00240823       0.00949962
H        1.05510246      -0.17773730      -1.63305093       0.00221535       0.00231559       0.00928903
C        2.78254295       0.98482602      -1.10108425       0.00197862      -0.00192842       0.00248861
C        2.09069272       2.19043210      -0.89543837      -0.00011221       0.00068247      -0.00465270
H        1.00343367       2.18595356      -0.82215824      -0.00713900       0.00836858      -0.00750233
C        4.18292840       1.03401156      -1.18909354       0.00396039      -0.00290691      -0.00592422
H        4.74607207       0.11711768      -1.35745556       0.01242012       0.00000577      -0.01009574
C        2.76661300       3.40396010      -0.75810173       0.00208846       0.00054553      -0.00379527
H        2.22842129       4.33865263      -0.58903227       0.00519591      -0.00339370       0.00180094
C        4.87565326       2.24012354      -1.06362902       0.00000940       0.00085674      -0.00492875
H        5.96464990       2.27944087      -1.13011577      -0.00025639       0.00535029       0.00591808
C        4.15701935       3.41233759      -0.84087187       0.00111894       0.00029538      -0.00159224
F        4.81669557       4.57373869      -0.70595220       0.00078617      -0.00152066       0.00892798
H       -2.55964463      -3.11406957      -1.71169115      -0.00642486      -0.00496804      -0.01276952
H       -2.96550358      -1.62788060      -2.63236139      -0.00376109      -0.00099601      -0.00853577
H       -1.26653792      -2.18074590      -2.49869888      -0.00299426      -0.00778949      -0.00917744
H       -4.01960080      -1.90824767       0.50964861      -0.01963743      -0.00212633      -0.01147236
H       -3.58163120      -0.33089219       1.17117705      -0.00103455       0.00704431      -0.00727154
C       -4.69180565      -0.22308365      -0.68139378      -0.00891573      -0.00090644      -0.00111818
C       -4.84705137       1.17383716      -0.66388784      -0.00880253       0.00233151       0.00489150
H       -4.25649691       1.77042212       0.03504982      -0.00778411       0.00571912       0.01427617
C       -5.45808358      -0.96445120      -1.59631405      -0.00713308      -0.00750122      -0.00230761
H       -5.36296052      -2.05311117      -1.62319336      -0.01007479      -0.01368018      -0.00705404
C       -5.73365211       1.81666356      -1.52844529      -0.00735409       0.00121526      -0.00136733
H       -5.85958000       2.90097746      -1.51476726      -0.00061047       0.00366721      -0.00695496
C       -6.35466571      -0.33772746      -2.46488067      -0.00571301       0.00111298      -0.00229478
H       -6.96264834      -0.90798138      -3.16998597      -0.00334845       0.00785903      -0.00622079
C       -6.48135642       1.04870966      -2.41837012      -0.00684975       0.00262840      -0.00294035
F       -7.34576144       1.65458794      -3.24427855      -0.00080427       0.00495460      -0.00613220
H       -0.78248930       0.37975244      -1.90360992      -0.00072464      -0.00368636       0.01096010
H       -2.50120797       0.70833685      -1.95322015       0.00572140      -0.00733431       0.01398130
C       -1.45299757       1.75894242      -0.39391523      -0.00175179       0.00560343       0.00112468
C       -1.50996874       3.04752065      -0.95335399      -0.00353838       0.00802639      -0.00301241
H       -1.77097017       3.17136153      -2.00797087      -0.00468885       0.02192597      -0.00158921
C       -1.14261782       1.65325826       0.96560045      -0.00184024       0.00790583      -0.00020438
H       -1.08201311       0.66654865       1.42032741      -0.00041105       0.00098187      -0.00835798
C       -1.22886625       4.18046517      -0.18509806      -0.00168275       0.00615872       0.00053759
H       -1.26850870       5.18557731      -0.60827546      -0.00137123       0.00549211       0.00570323
C       -0.84160869       2.76709564       1.74702111      -0.00084698       0.00810853      -0.00070289
H       -0.57342175       2.65737470       2.79970497      -0.00343373       0.00942705      -0.00099797
C       -0.87936179       4.02380385       1.15646601      -0.00098406       0.00829326       0.00053362
F       -0.58705580       5.10586666       1.89151007      -0.00055969       0.00317874       0.00407885
