66
Properties=species:S:1:pos:R:3:forces:R:3 energy=70.37640380859375 pbc="F F F"
C        1.60865139      -3.01375681      -0.71877709       0.01041500      -0.01497572       0.00122955
H        1.30624116      -3.62742122      -1.56986420      -0.00206337      -0.02900122      -0.01403713
H        2.57780206      -2.51972592      -0.79290466       0.01915124      -0.01450692      -0.00270428
C        1.02580927      -3.22461313       0.52767100       0.00041394      -0.00270553       0.00162131
H        0.26050528      -3.98978104       0.67568685       0.00529264       0.00177375      -0.01554327
H        1.55180060      -2.89776146       1.42800673       0.01034143       0.01317952      -0.00628638
H       -0.36001763      -1.60284497       1.11628296      -0.00909871      -0.01839181      -0.00019605
Rh       0.04302305      -1.38685003      -0.42538891       0.02014842      -0.00244533       0.00355409
O        1.53780380       1.09567625       1.47679615      -0.03477420      -0.02043575      -0.01856134
O        3.15123776      -0.63988083       0.49516238       0.00571595      -0.01823787      -0.01489156
O        2.28634388       1.27087172      -0.85423455      -0.01302384       0.00727312       0.01457237
O       -2.25714364       0.85113905      -1.57642095      -0.00842397      -0.00201099      -0.01222162
O       -3.11674298      -0.46639734       0.31114678      -0.00516885      -0.00587597      -0.01469713
O       -1.37039267       1.39714529       0.64358969       0.00089197       0.00340622       0.00745565
P       -1.67314525       0.07611146      -0.25101175       0.00248181       0.00823520       0.00246318
P        1.73961207       0.09583226       0.16589191      -0.00573253      -0.02335068      -0.01290619
C       -0.64005350      -2.10924996      -2.07013118       0.01250037       0.01658294       0.01676466
O       -1.08521079      -2.65969498      -2.98687620      -0.01084255      -0.00084233       0.00373053
C        0.89969866       0.63035668       2.65222003      -0.01091557      -0.01051803       0.00652440
H        0.04845104      -0.02638678       2.41522689      -0.01949457      -0.01198175       0.00784694
H        1.60820825       0.07240593       3.29078836       0.01493715       0.00372656       0.00941292
H        0.53349099       1.50678388       3.20535853       0.01240256       0.02949425      -0.02005079
C        4.35255188       0.06517223       0.88580010       0.00144876      -0.00366654      -0.00240968
H        4.07358090       1.09518309       1.15970593       0.02541339       0.01714806       0.01139838
C        5.30144742       0.09281754      -0.30294064       0.00925823      -0.00191677      -0.00589061
H        4.82488385       0.60714815      -1.14914434      -0.00883917       0.01084023      -0.00393814
H        5.55659261      -0.93392204      -0.61184162       0.01237156      -0.01440680       0.00391559
H        6.23343834       0.62101258      -0.04546710       0.01363300       0.00125511       0.00749379
C        4.92043656      -0.64755911       2.10231853       0.00446465      -0.00723046       0.00730729
H        4.19701613      -0.63711325       2.93183856       0.00325286       0.00659975       0.01815356
H        5.15410389      -1.69634034       1.85879995       0.02268506      -0.01175475       0.00045149
H        5.84520513      -0.15432405       2.44190863       0.01045698       0.00235332       0.00067102
C        1.33936742       2.18985958      -1.44083401      -0.01204686       0.00999429      -0.00556651
H        0.37491520       2.08346679      -0.92326838      -0.03080022       0.01680176      -0.01708985
C        1.15634256       1.82873827      -2.90573807       0.00348280       0.00374265      -0.01285376
H        0.77780599       0.79891619      -2.99001566       0.00014322      -0.00234975       0.00796381
H        2.11645739       1.89690487      -3.44277040       0.01299100       0.01027448      -0.01690546
H        0.43301682       2.50681596      -3.38576476      -0.00726261       0.01473707       0.00576425
C        1.85896710       3.59863177      -1.20661891       0.01149482       0.00704118       0.00026941
H        1.95451762       3.78930426      -0.12697111      -0.00086749       0.01054731       0.00983801
H        2.84928880       3.72971659      -1.67204008       0.01250349       0.00397772      -0.01711842
H        1.16928214       4.34218836      -1.63705249      -0.01084731      -0.00897997      -0.00514173
C       -3.01979758       0.21433326      -2.59239707      -0.01173608      -0.01491987      -0.01636094
H       -2.38454218      -0.40441436      -3.24339666       0.02404058       0.00058495      -0.00888210
H       -3.81514256      -0.40871647      -2.15338716      -0.03119793      -0.01625827      -0.00957548
H       -3.47793751       1.01359894      -3.19312842      -0.00134394       0.02587873       0.00586798
C       -3.23578066      -1.52525769       1.28174975      -0.00502296       0.00078668      -0.00186883
H       -2.32403739      -2.14368998       1.21556015       0.00044123      -0.01409785       0.00657389
C       -4.44137696      -2.35981788       0.89103983      -0.01451647      -0.00617948      -0.00309005
H       -4.30656104      -2.77010993      -0.12101231       0.00982893       0.00029383      -0.01197649
H       -5.36021417      -1.75176187       0.90441674      -0.01997954       0.00154764       0.00381618
H       -4.56734637      -3.19968435       1.59241903       0.00776531      -0.00447904       0.02082452
C       -3.32927662      -0.91687387       2.67401013      -0.00563912       0.00593462       0.01455166
H       -2.42410151      -0.33338736       2.90067787       0.01321148       0.00884442      -0.00126259
H       -4.20166521      -0.24765564       2.74891610      -0.01811030       0.00489028       0.00629049
H       -3.42634721      -1.70533183       3.43680085      -0.00599364      -0.01868112       0.00285153
C       -2.31730081       2.48180126       0.80356622       0.00343466      -0.00086010       0.00433021
H       -3.31906432       2.10513620       0.54115786      -0.03004541       0.02568624       0.00394312
C       -1.94354746       3.62600830      -0.12920741       0.00449673       0.00784115      -0.00194749
H       -1.95069242       3.28808593      -1.17378690      -0.00836638       0.00290558      -0.01809895
H       -0.94169739       4.01192828       0.11491627       0.00860659       0.01237921       0.00974767
H       -2.66642357       4.45110640      -0.02290089      -0.00432353       0.00653294       0.00914829
C       -2.29733453       2.89161017       2.26751756       0.01028307      -0.00403301       0.00899524
H       -2.56518066       2.04667122       2.91756389      -0.00922059      -0.00767038       0.01066102
H       -1.29350118       3.24657603       2.54969491       0.01202037       0.01743077       0.00947532
H       -3.01492542       3.70854150       2.44388648       0.00547685      -0.00208201      -0.01333835
