56
Properties=species:S:1:pos:R:3:forces:R:3 energy=40.81587600708008 pbc="F F F"
C        1.34941222      -3.84514785      -0.71888081       0.00577398      -0.01819867      -0.00397347
H        0.78300769      -4.61647785      -1.24775778       0.00617436      -0.03189884      -0.01226058
H        2.10627960      -3.33720801      -1.32964541       0.00960716      -0.00918132      -0.00446100
C        1.45690909      -3.91250133       0.67532369       0.00240795      -0.01276842       0.00302877
H        0.99028085      -4.71666485       1.24905781       0.00818872      -0.00697620      -0.00579623
H        2.29956179      -3.43650537       1.18567845       0.01114562       0.00731524      -0.00056625
H       -0.13168827      -2.71933699       1.60644556      -0.00601098      -0.02741900       0.00175675
Rh      -0.10002662      -2.30181812       0.00284738       0.00156539      -0.01513852       0.00457359
C        1.53709046       1.03406644       0.73075160      -0.00547400      -0.00298096      -0.00144671
C        3.30975844      -1.20785080       0.75209635       0.00471177       0.00007854      -0.00008775
C        2.24475445      -0.32106453      -1.73257010       0.00352506       0.00139697      -0.00456280
C       -1.96080265       0.59084835      -0.75371245      -0.00143946      -0.00414730       0.00245596
C       -3.42984886      -1.45772930       0.66062326      -0.02028689      -0.00223043       0.00002337
C       -1.62405807       0.17142148       2.12720743      -0.00461288       0.00300229       0.00100719
P       -1.72400405      -0.75205290       0.54390532      -0.00593592      -0.00719569       0.00578317
P        1.69307499      -0.70180988       0.00493737      -0.00757077      -0.01292140      -0.00233391
C       -1.32179687      -3.09346582      -1.20750816      -0.01632198      -0.01682142      -0.00490196
O       -2.13190145      -3.66238290      -1.81746259       0.00413398       0.00655502       0.00522188
H        1.38976565       0.88088899       1.81106693       0.00460349      -0.00823641       0.00215149
H        0.59917626       1.44720258       0.33456610      -0.00238636      -0.00015070      -0.00919366
C        2.67127146       1.98779341       0.47799477      -0.00173153      -0.00520425      -0.00172721
C        2.68577108       2.79769053      -0.66979008      -0.00362252       0.00108763      -0.00235084
H        1.84668119       2.75045902      -1.36919702      -0.00803225       0.00749311      -0.00435381
C        3.75502584       2.08050703       1.36700348      -0.00106704      -0.00025345       0.00457842
H        3.75734621       1.47142355       2.27476577       0.00277137       0.00568983       0.01326507
C        3.75071675       3.66360850      -0.92696255      -0.00075773       0.00162092       0.00257305
H        3.73832051       4.28689231      -1.82489864       0.00489455      -0.00119410       0.00064053
C        4.82280683       2.94435432       1.11224554      -0.00248957       0.00169421       0.00036854
H        5.65408623       3.00209070       1.81977603       0.00143797      -0.00072924      -0.00375402
C        4.82611420       3.73927911      -0.03720541       0.00311082       0.00633213       0.00058300
H        5.65934127       4.41778346      -0.23629008       0.01077550       0.00202941      -0.00486844
H        3.18289474      -1.33283989       1.83903736      -0.00020552       0.00431616       0.00631714
H        3.61895860      -2.17509796       0.33168531       0.00933259      -0.00478995      -0.00633353
H        4.10287302      -0.47153120       0.56047196       0.00114091       0.01035729      -0.00235320
H        3.13825522       0.31984820      -1.77388962       0.00607233       0.00279050       0.01062738
H        2.45148511      -1.27853058      -2.23171561       0.00438714      -0.00227741      -0.00590443
H        1.41424703       0.15711548      -2.27159561      -0.00561078       0.00969096       0.00341554
H       -2.20849451       0.04252337      -1.67576282      -0.01258493       0.00139320      -0.00343335
H       -0.97150085       1.04048304      -0.92041688       0.00549706      -0.00604967       0.01541093
C       -2.98836944       1.64787985      -0.44629330      -0.00068518       0.00241132      -0.00099075
C       -2.63667308       2.81296520       0.25616041       0.00304540       0.00582791      -0.00210931
H       -1.59538921       2.96851259       0.55174001       0.00758917       0.01358538      -0.00287413
C       -4.33007626       1.48895882      -0.83211887      -0.00206029       0.00157172      -0.00577808
H       -4.62342598       0.60020458      -1.39650764      -0.00771314       0.00058314      -0.01038720
C       -3.59385011       3.77829530       0.57752100      -0.00184170       0.00397036      -0.00233245
H       -3.29660798       4.67763092       1.12332386      -0.00644401       0.00194377       0.00494112
C       -5.29005924       2.45201759      -0.51236069       0.00006028       0.00371812      -0.00293628
H       -6.32789746       2.30850872      -0.82440477      -0.00085590       0.00181597       0.00429053
C       -4.92657753       3.60038390       0.19636335      -0.00418475       0.00723300      -0.00105214
H       -5.67683289       4.35495331       0.44609360      -0.00912305       0.00531220       0.00893691
H       -3.69656366      -1.93590142      -0.29214443      -0.01813310      -0.00141248      -0.01231513
H       -3.41775185      -2.23182828       1.44069006      -0.00942291      -0.00541947       0.00935815
H       -4.17216084      -0.68491349       0.91125975      -0.01619698       0.00983407       0.00770031
H       -1.59112763      -0.57358685       2.93456624      -0.00418159       0.00113327       0.00630298
H       -0.70361194       0.76511200       2.16900712       0.00136455       0.00321464      -0.00682574
H       -2.49040254       0.83580945       2.26062772      -0.00703202       0.00230315      -0.00883279
