86
Properties=species:S:1:pos:R:3:forces:R:3 energy=89.05021667480469 pbc="F F F"
C        1.03916080      -2.57166957       2.32950063      -0.01188282      -0.00223925      -0.00011396
H        1.20801056      -3.59929844       1.99080187      -0.00978198      -0.00576647       0.00707572
H        1.96013855      -2.10523634       2.68837679      -0.01396633      -0.00021384      -0.00041705
C       -0.19580733      -2.24484788       3.04549510      -0.00327604      -0.00396887       0.00148601
H       -0.89892169      -3.07867951       3.16466214      -0.00154074      -0.00672274       0.01628080
H       -0.08744643      -1.65897067       3.96014403       0.01235598       0.00334330      -0.01337201
H       -0.85364582      -1.17880898       2.44682999      -0.00537075      -0.00925227       0.00750305
Rh      -0.11807269      -1.42471661       0.93082567       0.00100099      -0.00151050      -0.01049297
O        1.84783207       1.36184286       1.71343958      -0.00277960      -0.01074355      -0.00116480
C        3.26886634      -0.71950718       0.68209083       0.00511493       0.00256806      -0.00091236
C        1.70425738       1.05993005      -0.91341328       0.00166590      -0.00139076       0.00462458
O       -1.20175610       0.30476522      -1.60742288      -0.00639505      -0.00651256      -0.00683193
C       -3.29435719      -1.18874787      -0.57195016      -0.00183469       0.00109445       0.00322313
C       -2.39885933       1.30833832       0.66808288       0.01156941      -0.00373466       0.00561732
P       -1.75645472      -0.23436729      -0.12437322       0.00467362       0.00571322      -0.00678376
P        1.59423665       0.07694538       0.63728314       0.00326969      -0.00430481       0.00373711
C       -0.57023343      -3.02847980       0.00015298      -0.00277064      -0.01192113      -0.00813756
O       -0.90335340      -4.04123864      -0.44638877       0.00320575       0.00682180       0.00410741
C        1.47068002       1.23254900       3.06600997       0.00085285      -0.00220311       0.00138496
H        0.48873322       0.73529206       3.16480963       0.01081454       0.00363621       0.01428465
H        2.21290038       0.65253588       3.64580194      -0.00794053      -0.00330726      -0.00072677
H        1.40405105       2.24280110       3.49890756      -0.00029645       0.00257492      -0.02387441
H        4.03745584       0.06010578       0.57174860       0.00090905       0.00643547      -0.00679704
H        3.40037742      -1.14545738       1.68850233       0.00589688       0.01126325      -0.00361582
C        3.41030022      -1.81418314      -0.37696691       0.00615510      -0.00286181       0.00387051
H        2.51167668      -2.45400413      -0.34747231       0.00613430       0.00555800      -0.00008349
H        3.41815924      -1.35387568      -1.38139416       0.00311701      -0.00620702       0.00621192
C        4.65650767      -2.68114183      -0.20755209       0.00286885      -0.00351563      -0.00216882
H        4.63882343      -3.14832536       0.79458644       0.00935020       0.00282607      -0.00842744
H        5.56085269      -2.04448230      -0.22761819      -0.00531350      -0.01158225       0.00198627
C        4.77390264      -3.77054925      -1.27396346       0.00655371      -0.00387221       0.00225830
H        3.86588699      -4.39983682      -1.24612365       0.01250988       0.00363634      -0.00340334
H        4.77877912      -3.29897784      -2.27385285       0.00151343      -0.01225335       0.00888234
C        6.01393446      -4.64689994      -1.11363741      -0.00231937      -0.00210893      -0.00452503
H        6.07064025      -5.41976627      -1.89680039      -0.00255211       0.00166899      -0.00187133
H        6.01570231      -5.16087437      -0.13754593       0.00419263       0.00864512      -0.00808609
H        6.93753282      -4.04611062      -1.16988337      -0.00752940      -0.00967373       0.00473008
H        1.57696430       0.33139801      -1.73004370       0.00638782       0.00071065       0.01390744
H        0.80080243       1.68214480      -0.94226111       0.01294314      -0.01471185       0.01801999
C        2.95777440       1.91216491      -1.09848797      -0.00190429       0.00528399      -0.00575511
H        3.11429120       2.52535639      -0.19561217       0.01488301      -0.00410072      -0.01575808
H        3.84577455       1.26389544      -1.19038687      -0.00293514       0.00935148       0.00349446
C        2.88763633       2.81710697      -2.32929037       0.00546105       0.00763441      -0.00350926
H        2.00781603       3.48210052      -2.24536694       0.00589814      -0.00531339      -0.00976126
H        2.71243862       2.20016002      -3.23052359      -0.00257751       0.00586709       0.01393065
C        4.14643284       3.66358537      -2.52895762      -0.00145883       0.00656774      -0.00883677
H        4.31984947       4.26906433      -1.62082714       0.00162786      -0.00119950      -0.01590353
H        5.02209281       2.99375260      -2.61107094      -0.00546811       0.01386571       0.00070764
C        4.08516681       4.57679314      -3.75191019       0.00492040       0.00146556      -0.00000292
H        5.00550825       5.17288145      -3.86117764      -0.00061885      -0.00477621       0.00504544
H        3.23859817       5.28039988      -3.68167855       0.00803033      -0.00822438      -0.00870781
H        3.95229505       3.99467184      -4.67937034      -0.00261068       0.01105490       0.00658659
C       -1.96471302       1.03728688      -2.53657376       0.00082736      -0.00154849      -0.00857877
H       -2.66498609       0.38864232      -3.09065558      -0.01172921       0.00792015       0.00841095
H       -2.53919759       1.85264068      -2.06300766       0.00096228      -0.01608712      -0.00262849
H       -1.26025687       1.48277925      -3.25478880       0.01411532      -0.00109614       0.00542479
H       -2.97645260      -1.80946563      -1.42825282      -0.00302531       0.00856517       0.00088470
H       -3.45659666      -1.89836184       0.25601896      -0.01309637      -0.00217125      -0.00491019
C       -4.59864359      -0.45015880      -0.88811225      -0.00085273      -0.00869517      -0.00177369
H       -4.92649666       0.11858556      -0.00156292      -0.00483473       0.00063094      -0.01517120
H       -4.44706192       0.29501711      -1.68565263      -0.00245924      -0.01337329       0.00789516
C       -5.72139866      -1.40378233      -1.30555343      -0.00680701       0.00299907      -0.00300685
H       -5.84574660      -2.17979452      -0.52830652      -0.00544437       0.00598835      -0.01356220
H       -5.42005906      -1.94464363      -2.22205632      -0.01467017       0.00079951       0.00482119
C       -7.06200724      -0.70586321      -1.54240746      -0.00748103      -0.00750258      -0.00277626
H       -7.35102654      -0.15827009      -0.62694297      -0.00578646      -0.00532386      -0.01626693
H       -6.93953375       0.06438451      -2.32609608      -0.01658933      -0.00926267       0.00766155
C       -8.18085447      -1.66810098      -1.93880652      -0.00701977       0.00398966      -0.00124429
H       -9.13519010      -1.14097338      -2.09743229      -0.00399623       0.00133978      -0.00160348
H       -8.34564856      -2.42803456      -1.15641093      -0.00401154       0.00368835      -0.01331053
H       -7.93583891      -2.20497477      -2.87056255      -0.00977570      -0.00061016       0.00950815
H       -3.28610410       1.68122340       0.13195460       0.01663136      -0.02680773      -0.01560770
H       -2.74007239       0.99957859       1.67162579       0.00819007      -0.00412921       0.00139477
C       -1.33784271       2.40445773       0.77442504       0.00326141      -0.00172287       0.00579212
H       -0.39052750       1.97734395       1.13009339       0.00130242       0.00542352       0.00047556
H       -1.12500213       2.80401616      -0.23252187       0.00584922      -0.00878121       0.00680489
C       -1.73412352       3.55083236       1.70328296       0.00509692       0.00378344       0.00398551
H       -1.92595762       3.14226601       2.71293520      -0.00701511       0.00807738      -0.00407884
H       -2.69183070       3.99472821       1.37166751       0.01101572      -0.00293810       0.00423913
C       -0.66689768       4.64307961       1.79516908      -0.00580060       0.00231674       0.00590177
H        0.29774646       4.17880876       2.06759969      -0.00996686       0.00866040      -0.00455275
H       -0.51060541       5.08267932       0.79307286      -0.00009242      -0.00085816       0.01439771
C       -1.01773305       5.74482649       2.79341799       0.00334560       0.00054498      -0.00139706
H       -0.23457951       6.51821814       2.84069984       0.00105642      -0.00433116      -0.00558513
H       -1.14263010       5.33429192       3.80980689      -0.00530125       0.00871721      -0.00844177
H       -1.96420063       6.24336253       2.52346204       0.00851334      -0.00492160       0.00887961
