56
Properties=species:S:1:pos:R:3:forces:R:3 energy=46.6948356628418 pbc="F F F"
C       -4.15391424      -0.69953897       1.91171547      -0.01509158      -0.00794409       0.00739073
H       -3.89741471      -0.54135821       2.96233215      -0.01715859      -0.00735488       0.02151489
H       -4.68515217       0.12728326       1.43465115      -0.01927903      -0.00577528       0.00822665
C       -4.18965565      -1.98665609       1.39491164      -0.00751208      -0.00473770       0.00716513
H       -3.96369478      -2.86059875       2.00784350      -0.00717298       0.00717205       0.00484182
H       -4.74994926      -2.17686265       0.47574658       0.00335537       0.01033311       0.00641743
H       -2.68512079      -1.95558855      -0.35741366      -0.01130028      -0.01621562       0.01383244
Rh      -2.17703226      -0.97013662       0.79888638      -0.01454508       0.00093046      -0.00794977
O       -1.69275533       1.57272386      -1.65595476       0.00313652      -0.02103162       0.00976827
O       -3.76142473       0.26662599      -1.96320026       0.00834171      -0.00834704       0.01280066
O       -3.73129799       1.91151751      -0.10855298      -0.01635925      -0.00364987      -0.01787819
O        1.05987653      -1.24881069       0.93166631      -0.00200392      -0.01784847      -0.00588052
O        0.11334778      -3.23120369      -0.41761141       0.00051473      -0.01015760      -0.00833327
O        0.12500635      -1.00149660      -1.50121836       0.02289300      -0.00166649       0.00138637
P       -0.19900329      -1.65744492      -0.07319515      -0.00706107      -0.00165372      -0.01281032
P       -2.79514557       0.68324293      -0.67995330      -0.01079867      -0.00942172       0.00970733
C       -1.36534502      -0.44673816       2.47477619      -0.00831242       0.00791273      -0.01802710
O       -0.87041907      -0.30491515       3.50333333       0.00394745      -0.00960163      -0.00402058
C       -0.47699548       2.01223161      -1.23399192      -0.00079803       0.00413408       0.00714116
C        0.52652342       2.14655064      -2.20230413      -0.00120539       0.00585832      -0.01706271
H        0.29308181       1.88237596      -3.23519019       0.01164591       0.00857845      -0.02267894
C       -0.20960049       2.34942639       0.09859387      -0.00727809       0.00808520       0.00529038
H       -0.99078446       2.25794469       0.85327410      -0.01287865       0.00176837       0.01223641
C        1.79233495       2.60407730      -1.84599041      -0.00073637       0.00040722      -0.00562363
H        2.57736931       2.70974728      -2.59663593       0.00903985      -0.00344161      -0.00589610
C        1.06168572       2.80077770       0.45879459      -0.00456292       0.00456624       0.00474040
H        1.27714579       3.06071415       1.49637447       0.00702459       0.00555179       0.00318934
C        2.05709514       2.92430797      -0.51072232       0.00817100       0.00588751      -0.00395401
Cl       3.66480298       3.46914790      -0.04609216       0.01231527       0.00411515       0.01442905
C       -3.30227363      -0.67108156      -2.92535750       0.01021723      -0.00389536       0.00519926
H       -2.51058302      -0.23108290      -3.55343333       0.00717568       0.00645835      -0.00974071
H       -2.90797852      -1.58052966      -2.44025187      -0.00742675      -0.01537311       0.01046687
H       -4.16226568      -0.94295268      -3.55401998      -0.01988151       0.02085366       0.01318245
C       -4.29009981       2.91716924      -0.95659137      -0.00008717       0.00306602      -0.02043016
H       -3.50044685       3.41992646      -1.53683783      -0.01068398       0.02859367      -0.00997578
H       -5.02124200       2.47731877      -1.65111831      -0.02659674       0.02140435      -0.02566649
H       -4.78691623       3.64659488      -0.30228206       0.01120857      -0.01444577       0.00404676
C        2.41158688      -1.24464855       0.66769446       0.00564287      -0.00439795      -0.00057511
C        3.12452585      -0.08364945       0.98218237      -0.00057270       0.00668891       0.00643511
H        2.58844117       0.77046073       1.39231670      -0.00104830       0.02053920       0.01540147
C        3.08134068      -2.35875494       0.14743247       0.00703771      -0.01279774      -0.00590490
H        2.52335520      -3.26141029      -0.09644214       0.00411366      -0.02517640      -0.00651003
C        4.50079690      -0.02208552       0.76649217       0.01267540       0.00293540       0.00547159
H        5.05363583       0.88874080       0.99699742       0.01553629       0.00686700      -0.00651853
C        4.45794532      -2.29695121      -0.07830110       0.01606416      -0.00757784      -0.00163090
H        4.98936610      -3.15512744      -0.49255294       0.02007827      -0.00649158      -0.01211553
C        5.16124630      -1.12941779       0.22864640       0.01895787      -0.00062078       0.00130048
Cl       6.88881722      -1.05577419      -0.05991838       0.02931821       0.00498386      -0.01111876
C       -0.20043215      -4.21156661       0.56623280      -0.00396822      -0.00883680       0.00721774
H       -1.20123888      -4.02542517       0.99175905      -0.01879026       0.00386283       0.00031230
H       -0.18331992      -5.19058506       0.06877967       0.01281215       0.00612492      -0.01778395
H        0.54376312      -4.19976299       1.38078016       0.01225861      -0.00438375       0.01930198
C        1.21392308      -1.29079582      -2.37943975       0.00994739      -0.01383519       0.00100343
H        2.11723525      -0.75040187      -2.06208363       0.01094924       0.00967483      -0.00139466
H        1.41562014      -2.37069906      -2.41478077       0.02370984      -0.02421038      -0.02607587
H        0.91575658      -0.93905766      -3.37647840      -0.01930837       0.01095453       0.03353681
