60
Properties=species:S:1:pos:R:3:forces:R:3 energy=45.688873291015625 pbc="F F F"
C        0.80413136      -4.32287318      -0.07321667       0.00368416      -0.01557114       0.00484820
H        0.25753269      -5.04454743      -0.68376185      -0.00250108      -0.02532913       0.00594782
H        1.77960776      -4.00264345      -0.44274109       0.00432193      -0.01610222       0.00322763
C        0.48974277      -4.18167453       1.27454941       0.00377050      -0.01071067      -0.00000314
H       -0.30187624      -4.77098208       1.74094834       0.00987677      -0.00777885      -0.01344924
H        1.22600402      -3.75502368       1.96000017       0.00572112      -0.00121412      -0.00687012
H       -0.53768293      -2.36098151       1.70935313      -0.00372134      -0.01915213       0.00454625
Rh      -0.47757453      -2.45669047       0.09607030       0.00325561      -0.01267024      -0.00100211
C        1.64011213       0.34576879       1.03662108      -0.00693378       0.00374839       0.00246334
O        2.83583409      -1.85925628      -0.15579815       0.00657880       0.00194713       0.00465649
O        1.46509062      -0.14577382      -1.55384996      -0.00228020      -0.01119335      -0.00614510
C       -1.84590223       0.55598292      -1.10393661      -0.00227648      -0.00210021      -0.00203120
O       -3.51728017      -0.96728681       0.24190802      -0.00783586      -0.00159731       0.00742190
O       -1.63347771       0.36385096       1.49082817       0.00194758      -0.02109395      -0.00973458
P       -1.88738831      -0.70430424       0.25437300      -0.00155922      -0.00685896      -0.00134615
P        1.36978910      -1.08303461      -0.13442759      -0.00211985      -0.01085644       0.00254038
C       -1.53158154      -3.22006209      -1.30502880      -0.00225424      -0.00512070      -0.00235145
O       -2.22131373      -3.69829193      -2.10160367      -0.01516304       0.00143217       0.01872852
H        0.68966775       0.90124348       1.00352970      -0.00807120       0.01777626      -0.01119551
H        1.67924221      -0.13355754       2.02732643       0.00043383      -0.00205679       0.00334530
C        2.82192584       1.24614541       0.81824240      -0.00122311      -0.00566999      -0.00011135
C        3.96091379       1.14079137       1.63033621       0.00403518      -0.00742015       0.00881038
H        3.97671953       0.40576285       2.43951435       0.00733983      -0.00668252       0.02161172
C        2.82250230       2.20510799      -0.20931695      -0.00834650       0.00357715      -0.00428402
H        1.94885663       2.29375733      -0.85638213      -0.02102197       0.01102618      -0.00739362
C        5.07820062       1.95319304       1.42451885      -0.00073059       0.00234446       0.00046579
H        5.96668982       1.87808233       2.05439216       0.00498547       0.00078219      -0.00784208
C        3.93078373       3.02276651      -0.43073163      -0.00257392       0.00182019       0.00362185
H        3.94160810       3.76898225      -1.22753288      -0.00006441      -0.00495024       0.00281865
C        5.04807948       2.88476978       0.39083938       0.00315136       0.00525092       0.00239249
F        6.11740265       3.66903582       0.18155130       0.00868374      -0.00101031      -0.00131142
C        4.05726109      -1.34557132      -0.68617357       0.00232436       0.01384475      -0.00572616
H        3.88643431      -0.44448238      -1.29254484       0.01505419       0.01808815      -0.01835510
H        4.75015214      -1.09534394       0.13049169       0.00427559       0.00529676       0.00406411
H        4.50787001      -2.12790896      -1.31692871      -0.00899376      -0.00300806       0.00898829
C        1.17027979      -0.75976978      -2.79978655       0.00047461      -0.01106898      -0.00818954
H        1.95580180      -1.48134416      -3.08427176       0.01563347      -0.00618127      -0.01022216
H        0.20607382      -1.29420953      -2.76123337      -0.01901853      -0.00705120      -0.01363874
H        1.12557921       0.03680982      -3.55652211       0.01199471       0.02354164       0.01552366
H       -0.78159012       0.77630608      -1.26596823       0.00266649      -0.00767512       0.01280371
H       -2.20854505       0.02861139      -1.99972304      -0.01604449       0.00922019      -0.00233921
C       -2.62942887       1.81193351      -0.82719912      -0.00268078       0.00620618      -0.00129232
C       -4.01542142       1.86520643      -1.04181924      -0.01153321      -0.00205597      -0.01121883
H       -4.53059879       0.98375535      -1.42767729      -0.01998813      -0.00862395      -0.01840460
C       -1.98887117       2.94800081      -0.30846075       0.00984448       0.00814209      -0.00290906
H       -0.91138013       2.92346988      -0.12761915       0.02286973       0.01208830      -0.00526856
C       -4.74591927       3.02012737      -0.75451833      -0.00433505       0.00906206      -0.00588198
H       -5.82375651       3.07342189      -0.91994993      -0.00468889       0.00613161       0.00977227
C       -2.70396813       4.11036540      -0.01418337      -0.00155878       0.00894639      -0.00501190
H       -2.21431367       5.00029360       0.38618681      -0.00472709       0.00291012       0.00694375
C       -4.07810596       4.12960796      -0.24156826      -0.00545695       0.01348902      -0.00039405
F       -4.77415720       5.24629507       0.03471595      -0.00568270       0.01461364       0.01230501
C       -4.10740079      -2.01592313       0.99627115      -0.00685251       0.00227586       0.01391499
H       -3.41931153      -2.87397254       1.08463474      -0.00388680      -0.00932269       0.00859858
H       -4.38173505      -1.65865828       2.00312916      -0.02033934       0.00482103       0.02052397
H       -5.02007460      -2.33102067       0.46972097      -0.00572830       0.01916196      -0.01082071
C       -1.54420686      -0.01582033       2.85295136      -0.00222181      -0.00787641      -0.00190062
H       -2.54886820      -0.17145289       3.28040059      -0.01527496       0.00757686      -0.00288005
H       -0.95435507      -0.94168964       2.96823204       0.01250362      -0.01169122       0.01541727
H       -1.04880214       0.80613612       3.38904807      -0.01479183       0.02738173      -0.02886102
