58
Properties=species:S:1:pos:R:3:forces:R:3 energy=43.78746795654297 pbc="F F F"
C        4.26963511      -0.09274704      -1.24955680       0.03565514       0.02588028      -0.01020427
H        4.39353978      -0.44597558      -2.28094381       0.03774018      -0.00955511      -0.00830719
H        4.70091019       0.91629218      -1.15880415      -0.00248399      -0.02973325      -0.01047693
C        4.76135335      -1.03388970      -0.16700048       0.00479070      -0.01138681      -0.00159616
H        4.67047745      -2.08862151      -0.46510868       0.01828705      -0.01702233      -0.02583096
H        5.77971945      -0.86141993       0.21846797      -0.00766264       0.00789428      -0.00684183
H        4.11788230      -0.84936608       0.76447568       0.01062938       0.00407905       0.02147912
Rh       2.40062833      -0.37264760      -0.31250650       0.00581843       0.00582788      -0.00985053
C        0.34763952       2.41584304       0.28644893       0.00413337      -0.00788639       0.00457720
C        3.12841816       3.10965197       0.18620552       0.00753189       0.00009245       0.00419234
C        1.78341346       2.39464854      -2.19739444      -0.00205606       0.00651863      -0.00398551
C       -0.78661495      -0.76711456       1.16368467      -0.00024404       0.00003633       0.00740539
C        0.99935295      -2.88839557       1.73696267      -0.00071562      -0.01116375       0.00810140
C        1.32871268      -0.41905984       3.11404282       0.00665467      -0.00043743       0.00546888
P        0.99428037      -1.06113373       1.41754239       0.00481912       0.00275152       0.00471554
P        1.92253437       1.84017248      -0.43737262       0.01038314      -0.00384639      -0.00116855
C        1.87580989      -1.70837081      -1.54345119      -0.01171809       0.00176374      -0.00597186
O        1.41413036      -2.36765267      -2.37893087       0.01588335      -0.00278351       0.00936197
C        0.27228098       2.87548998       1.61340271       0.02005264      -0.00489236       0.00272573
H        1.18371694       2.98727086       2.20545540      -0.01304049       0.00897949       0.00663968
C       -0.84901070       2.28980660      -0.42960086       0.00215013      -0.00796345      -0.00540814
H       -0.83715114       1.90799792      -1.45211686       0.00096781      -0.00014485      -0.01156549
C       -0.94852330       3.20014911       2.19607011      -0.01030052      -0.00313389       0.00560840
H       -1.00910668       3.55223467       3.22776232       0.00246439      -0.00925863      -0.00802265
C       -2.08029415       2.62028285       0.13715866      -0.00789084       0.00891951       0.01890980
H       -2.98758249       2.48915154      -0.45052795      -0.00091539      -0.00856440       0.00121902
C       -2.13902085       3.06919320       1.46313972       0.01083975      -0.00964034      -0.00603304
O       -3.29021800       3.37551885       2.11450847      -0.01257545      -0.00152153       0.00287257
C       -4.50664374       3.32440181       1.39759987      -0.00433025      -0.00056859      -0.00423002
H       -4.73780848       2.30108967       1.05454692      -0.00595180      -0.01860104       0.00001444
H       -5.29122398       3.65661108       2.09065454      -0.00634989       0.01163837       0.01653492
H       -4.49028148       4.00102350       0.52382419      -0.00404540       0.00578168      -0.01318812
H        3.32409039       2.94325978       1.25541248      -0.00081691      -0.00881496       0.00357373
H        4.07842255       2.96977808      -0.35117761       0.01352452       0.00892554       0.00504719
H        2.77106280       4.14036143       0.03519585      -0.00153899      -0.00385423      -0.00870354
H        1.46285422       3.44581984      -2.27626454      -0.01116909       0.00823640       0.00208216
H        2.76948611       2.26762511      -2.66779344      -0.00008317       0.01749963      -0.00808204
H        1.07621664       1.74813948      -2.73496259       0.00074592      -0.00074427      -0.00646827
C       -1.66268961      -0.27962246       2.14271077       0.00971056       0.00005120       0.01207753
H       -1.29447065      -0.02611219       3.13737326      -0.02453825       0.00279680       0.00705207
C       -1.29289893      -1.04912709      -0.11131013       0.00437574      -0.00458583      -0.00278927
H       -0.61808546      -1.39778238      -0.89480593       0.00348070      -0.00268300      -0.00309197
C       -3.00758845      -0.08058654       1.85282777      -0.01373982      -0.00060297       0.00172425
H       -3.68734459       0.32907215       2.60096834       0.00293530       0.00351581      -0.01319307
C       -2.64013439      -0.86372067      -0.41375939      -0.01941803       0.00331753       0.00488637
H       -2.99035225      -1.08655141      -1.42078503      -0.00347012       0.00089353      -0.00796857
C       -3.50258494      -0.36571547       0.57241803      -0.00096104       0.00007739      -0.00738831
O       -4.82106542      -0.09962364       0.36164495      -0.01435642      -0.00098202      -0.00664174
C       -5.35945946      -0.34193730      -0.91928304      -0.00478357      -0.00737732      -0.01141806
H       -5.27903266      -1.40751766      -1.19912170       0.00017755      -0.01991095      -0.00215980
H       -6.41959718      -0.06166453      -0.87207987      -0.01516501       0.00839388       0.01092334
H       -4.85738703       0.26486714      -1.69463085       0.00064498       0.00898349      -0.01566893
H        0.73384534      -3.41221778       0.80798958      -0.00110577      -0.01620491       0.00329767
H        2.00493228      -3.21468551       2.04436052       0.00120252      -0.00765064       0.01517572
H        0.27053591      -3.14825407       2.52156557      -0.01000995      -0.00582285       0.01311658
H        0.67964456      -0.89100175       3.86860981       0.00508660      -0.00929052      -0.00427161
H        2.37761295      -0.63444227       3.36841105       0.00711525       0.00165521       0.01158544
H        1.18074563       0.66923201       3.13414115      -0.00004945      -0.00341503      -0.00614881
