54
Properties=species:S:1:pos:R:3:forces:R:3 energy=40.018497467041016 pbc="F F F"
C        0.49486060      -3.50731418      -1.09140904       0.01108393      -0.01442429      -0.00300178
H       -0.36321577      -4.09002174      -1.43228001      -0.01134427      -0.02338198       0.00662358
H        1.17069437      -3.12886624      -1.85946496       0.00502163      -0.00739939      -0.00868995
C        0.91636452      -3.60598661       0.22810573       0.00427491      -0.00346645       0.00139262
H        0.40661482      -4.25414555       0.94341033      -0.01083349       0.00114352      -0.02323214
H        1.93639367      -3.32046079       0.49579137       0.00726407       0.00745733      -0.00443770
H        0.45832144      -1.80219233       1.42980982      -0.00683408      -0.01585484       0.01082022
Rh      -0.30934581      -1.67800842       0.01196225       0.00437697      -0.00840656      -0.00401531
C        2.43145537       0.72866589       0.00687841      -0.00704666       0.00158750       0.01099290
O        2.34631287      -1.10623297      -1.96975881       0.00418926      -0.00013215      -0.00216533
O        0.74123398       0.94696057      -1.96726399      -0.00680869       0.00957364      -0.01044399
C       -2.04970587       1.35717432       0.10094159      -0.00730342       0.01289519       0.00235692
O       -2.50823318      -0.24893826       2.13157882       0.00061738       0.00668806       0.01444651
O       -0.23833084       1.04545150       1.93852635       0.00282784      -0.01358122       0.00305655
P       -1.25958941       0.04971551       1.09838378      -0.00060746       0.00328107       0.00307615
P        1.27291318      -0.29722221      -0.97748220      -0.00210965      -0.00089434       0.00280822
C       -2.00751867      -2.20532812      -0.69036562      -0.00203120      -0.00145104       0.00306111
O       -3.05792998      -2.55835928      -1.02658047      -0.00631010      -0.00065570       0.02447748
C        2.36225773       2.12593399       0.07033547      -0.00595980       0.00551917       0.00518117
C        3.37498951       0.05112006       0.79437222      -0.00208483      -0.00456480       0.00532301
C        4.16434348       2.15423479       1.69161472       0.00036652      -0.00118196       0.00178354
C        4.24326974       0.75890845       1.62646251      -0.00599857       0.00205119      -0.00153858
C        3.22331743       2.83428885       0.91328320      -0.00017686      -0.00970622       0.00067654
H        1.63327903       2.64856226      -0.54924031      -0.01412442       0.01947924      -0.00476988
H        3.16003101       3.92453411       0.96081011       0.00405081      -0.01777740       0.00479817
H        4.83784347       2.71081190       2.34829623      -0.00030118      -0.00467548       0.00063693
H        4.98002111       0.22199705       2.22929870      -0.01489379       0.00793336      -0.00800151
H        3.42510479      -1.04047978       0.75602497       0.00680452      -0.01039863      -0.00062077
C        3.36008572      -0.42751111      -2.70316805       0.00258122       0.01440245      -0.00379381
H        2.94160643       0.43015871      -3.25431270       0.00791688       0.02242370      -0.02507017
H        4.15892701      -0.06316537      -2.03591316       0.01343942       0.00300013       0.00419539
H        3.78471441      -1.14812550      -3.41694385      -0.01458480      -0.01246557       0.00766290
C       -0.35593400       0.73033148      -2.84565921      -0.01392563      -0.00470570      -0.01391534
H       -0.01193048       0.27501157      -3.79003876       0.00897604      -0.00625455      -0.02012591
H       -1.10835422       0.07081190      -2.38474227      -0.03149140      -0.01444098       0.00185256
H       -0.81194568       1.70861959      -3.05232300       0.00934375       0.01967185       0.00466362
C       -3.24820393       1.06648921      -0.56777584      -0.00849440       0.00170547       0.00281437
C       -1.44808509       2.61073548      -0.07177960       0.00341938       0.01270430       0.00508641
C       -3.22596463       3.26538548      -1.58113236      -0.00103964       0.00520036      -0.00432859
C       -2.03485845       3.55914527      -0.91249185      -0.00573521      -0.00159500      -0.00126933
C       -3.83350413       2.01822991      -1.40442315       0.00285757       0.00749576       0.00073182
H       -3.72571861       0.09363129      -0.43757254      -0.01334910      -0.00400533       0.00103155
H       -4.76859012       1.78589439      -1.91994350       0.01586174       0.00447138       0.00153919
H       -3.68329578       4.00963675      -2.23832609      -0.00241471       0.00084967      -0.00517110
H       -1.56021318       4.53535702      -1.04176227      -0.00467305      -0.01410051      -0.01382708
H       -0.52345456       2.83567108       0.45753349       0.01207187       0.02424585       0.00425899
C       -2.55698237      -1.42724743       2.92619958       0.00348600       0.00046143       0.01886893
H       -2.00593133      -2.25102251       2.44123079       0.00568329      -0.01411408       0.00217685
H       -2.12393446      -1.23425518       3.92207056      -0.00212244      -0.00114941       0.03828865
H       -3.61387934      -1.70778991       3.04317749      -0.01769290       0.02158167      -0.00149324
C        0.68694736       0.59770414       2.91521744       0.00005247      -0.01612760       0.00967336
H        0.19623044       0.51843636       3.90007113      -0.00470797       0.00595935       0.01897501
H        1.11245740      -0.38048579       2.63862414       0.02259917      -0.01915181       0.00070880
H        1.49501088       1.34038045       2.96377130      -0.03162706       0.02233751      -0.01492785
