70
Properties=species:S:1:pos:R:3:forces:R:3 energy=32.709320068359375 pbc="F F F"
C        1.00764698      -3.44152109       0.13164126      -0.00173284      -0.01627452      -0.00192146
H        1.26312444      -4.13577386      -0.67560226       0.00663270      -0.03981873       0.00843441
H        1.81958892      -3.37768120       0.86403463      -0.00311884       0.00628188      -0.00531813
C       -0.36000507      -3.52902570       0.70143756      -0.00246796      -0.01155697       0.00287919
H       -1.05360267      -4.10778153       0.07894351      -0.00089605      -0.02112251      -0.00754673
H       -0.46030134      -3.80984095       1.75527585       0.01581474      -0.00292750      -0.00226034
H       -0.75187101      -2.38480461       0.90929133       0.00138245      -0.00409371       0.01331642
Rh       0.06964358      -1.63635609      -0.50446043       0.00823625      -0.00748989      -0.01509283
C        1.41216443      -0.06551529       2.51649050      -0.00511438      -0.01078680       0.00067007
C        3.33991887      -0.84566006       0.48845247       0.00453639       0.00182888       0.00173952
C        1.70712269       1.40129516       0.04036572      -0.00471446      -0.00276991       0.00275459
C       -1.90993770       0.39566590      -2.49038027      -0.00750100       0.00308701      -0.00705673
C       -3.39602787      -0.74536351      -0.26913197      -0.00096505      -0.00100686      -0.00353227
C       -1.63037537       1.42922168       0.20934936       0.00310046      -0.00236539      -0.00471867
P       -1.70400286      -0.13784528      -0.73291891       0.00471515       0.00034948      -0.00329283
P        1.57358360      -0.31856332       0.68071272       0.00104106      -0.00644273      -0.00018649
C        0.06361463      -2.19323995      -2.28800113       0.00906906      -0.00041988      -0.01514779
O        0.03766991      -2.60848347      -3.36931276      -0.01144695      -0.00319555       0.00020382
H        0.48857481       0.51922753       2.64348201      -0.00340651      -0.00984975      -0.00413296
C        1.32450234      -1.37923940       3.29006447      -0.00106339      -0.00993668       0.00292031
H        2.22608419      -1.99644686       3.14830115       0.01335492      -0.00301897       0.00636476
H        0.45780404      -1.97409141       2.96633184      -0.01114872      -0.00247712       0.00304834
H        2.23498100       0.55592641       2.90186167      -0.00256389      -0.01123069      -0.00087576
H        1.21553580      -1.18924158       4.36982579      -0.00150654       0.01238217      -0.00033291
C        4.36132585      -0.39244583       1.33526849       0.00552493       0.00351927       0.00369727
H        4.13277436       0.27346707       2.16883830       0.01767055       0.00853521       0.00944981
C        3.67948999      -1.67447314      -0.58966007       0.00562311       0.00205173       0.00062683
H        2.88315658      -2.02719189      -1.24721454       0.00346206       0.00054999      -0.00839511
C        5.68783394      -0.77011007       1.12557713       0.00669626      -0.00340342      -0.00223115
H        6.49195314      -0.42876747       1.77923528       0.01106592      -0.01006456      -0.00583384
C        5.00143356      -2.05579349      -0.81891434       0.00895682       0.00123070       0.00057245
H        5.27381284      -2.70426293      -1.65323575       0.01509740      -0.00000238       0.00469910
C        5.98863645      -1.60060437       0.04850459       0.00837023      -0.00395054      -0.00084747
F        7.26143437      -1.96995001      -0.15327832       0.00838405      -0.00528267      -0.00122038
C        1.68643593       1.56140186      -1.35398881      -0.00215817       0.00036050       0.00201762
H        1.55335181       0.67737964      -1.98356434       0.00133898       0.00553083      -0.01458189
C        1.84754656       2.53215574       0.84985012      -0.00255018      -0.00276931       0.00718094
H        1.84643020       2.44171505       1.93605053       0.00031757       0.02024056       0.01433555
C        1.81378829       2.82161499      -1.93246758      -0.00200164       0.00592180       0.00494490
H        1.80129819       2.96015144      -3.01529551      -0.00062990       0.01092473       0.00619718
C        1.96761283       3.80324787       0.28583270      -0.00253924      -0.00191788      -0.00269409
H        2.05887993       4.69502772       0.90778297      -0.00259190      -0.00208000      -0.01423383
C        1.95153438       3.92947729      -1.09863711      -0.00117810       0.00433249      -0.00473051
F        2.04957828       5.15010912      -1.64728773      -0.00041513       0.00155882      -0.00641814
H       -1.84454095      -0.53732795      -3.06902975      -0.01100102      -0.00080561      -0.01564069
C       -3.15756110       1.18301535      -2.86193394      -0.01323488       0.00869459      -0.00538222
H       -3.27006294       2.09370769      -2.25568566      -0.00717360       0.02212936      -0.00591930
H       -4.06277208       0.57537483      -2.71932261      -0.01719076      -0.00678455      -0.01117912
H       -0.97925083       0.94175163      -2.71558538      -0.00851785       0.01090254      -0.00778576
H       -3.11379308       1.48534292      -3.91980847       0.00481254      -0.00271907      -0.01270785
C       -4.44271527       0.12957468       0.08310514      -0.00566177       0.00683629      -0.00230834
H       -4.27312448       1.20668968       0.11640789      -0.01710863       0.01516214      -0.00292147
C       -3.66527527      -2.12068812      -0.30458956      -0.00336340       0.00145114      -0.00321735
H       -2.86370542      -2.80941307      -0.57414474      -0.00421496      -0.00857599      -0.00094996
C       -5.71127056      -0.35543653       0.40385525      -0.00388230      -0.00830885      -0.00000260
H       -6.52976954       0.31030603       0.68726683      -0.00544890      -0.00887585       0.00311185
C       -4.92995561      -2.62165728       0.01178291      -0.00854794       0.00004146       0.00006446
H       -5.14486047      -3.69161374      -0.00530172      -0.01485811       0.00261920       0.00563145
C       -5.93609847      -1.72954450       0.36941924      -0.00838123       0.00227718       0.00168397
F       -7.14663228      -2.20102679       0.69574406      -0.00684890      -0.00295196       0.00630353
C       -1.77827938       1.40140179       1.60536645      -0.00161300      -0.00383373      -0.00181026
H       -1.96819461       0.45182228       2.11277584      -0.00357550       0.00245240       0.01689022
C       -1.37271119       2.65468851      -0.41478494       0.00403007      -0.00173533      -0.01034432
H       -1.21851910       2.70457385      -1.49058957       0.00609658       0.02092824      -0.01493134
C       -1.68720358       2.57105932       2.35850668       0.00109649       0.00212498      -0.00968806
H       -1.80257417       2.56588739       3.44396091       0.00718257       0.00861368      -0.01303354
C       -1.28772184       3.83401217       0.32255560       0.00060036      -0.00307934       0.00488022
H       -1.08319192       4.78890184      -0.16256117       0.00077164      -0.00553412       0.01556489
C       -1.44578686       3.77659637       1.70173858       0.00106795       0.00194223       0.00299382
F       -1.35816422       4.90522971       2.42021994       0.00165797      -0.00160719       0.00745607
